
Note: No compatibility mode selected!


Circuit: * tl331 comparator transient test - raw output

Doing analysis at TEMP = 27.000000 and TNOM = 27.000000

Using SPARSE 1.3 as Direct Linear Solver

Initial Transient Solution
--------------------------

Node                                   Voltage
----                                   -------
5                                            5
1                                          2.5
3                                          2.5
xu1.10                                  -0.002
xu1.eerr_int1                           -0.002
xu1.20                                    -400
xu1.egain_int1                            -400
xu1.21                                -38.2392
4                                        4.995
xu1.31                                -2.06313
b.xu1.begain#branch                          0
b.xu1.beerr#branch                           0
e.xu1.egain#branch                   0.0361761
e.xu1.eerr#branch                        2e-12
vsig#branch                          -6.25e-08
vref#branch                          -6.25e-08
vcc#branch                          -0.0004005

 Reference value :  1.97493e-04 Reference value :  3.98100e-04
No. of Data Rows : 2686
                 * tl331 comparator transient test - raw output
                 Transient Analysis  Tue Jun 23 12:36:29  2026
--------------------------------------------------------------------------------
Index   time            v(4)            v(3)            v(1)            
--------------------------------------------------------------------------------
0	0.000000e+00	4.995005e+00	2.500000e+00	2.500000e+00	
1	5.000000e-09	4.995005e+00	2.500942e+00	2.500000e+00	
2	1.000000e-08	4.995005e+00	2.501885e+00	2.500000e+00	
3	2.000000e-08	4.995005e+00	2.503770e+00	2.500000e+00	
4	3.683405e-08	4.995005e+00	2.506943e+00	2.500000e+00	
5	5.752749e-08	1.867995e-02	2.510844e+00	2.500000e+00	
6	7.588882e-08	1.867995e-02	2.514305e+00	2.500000e+00	
7	8.911928e-08	1.867995e-02	2.516799e+00	2.500000e+00	
8	1.013240e-07	1.867995e-02	2.519099e+00	2.500000e+00	
9	1.124589e-07	1.867995e-02	2.521198e+00	2.500000e+00	
10	1.228016e-07	1.867995e-02	2.523147e+00	2.500000e+00	
11	1.434870e-07	1.867995e-02	2.527046e+00	2.500000e+00	
12	1.848577e-07	1.867995e-02	2.534844e+00	2.500000e+00	
13	2.675992e-07	1.867995e-02	2.550439e+00	2.500000e+00	
14	4.330823e-07	1.867995e-02	2.581624e+00	2.500000e+00	
15	7.640484e-07	1.867995e-02	2.643964e+00	2.500000e+00	
16	1.264048e-06	1.867995e-02	2.738017e+00	2.500000e+00	
17	1.764048e-06	1.867995e-02	2.831835e+00	2.500000e+00	
18	2.264048e-06	1.867995e-02	2.925325e+00	2.500000e+00	
19	2.764048e-06	1.867995e-02	3.018396e+00	2.500000e+00	
20	3.264048e-06	1.867995e-02	3.110955e+00	2.500000e+00	
21	3.764048e-06	1.867995e-02	3.202911e+00	2.500000e+00	
22	4.264048e-06	1.867995e-02	3.294173e+00	2.500000e+00	
23	4.764048e-06	1.867995e-02	3.384652e+00	2.500000e+00	
24	5.264048e-06	1.867995e-02	3.474257e+00	2.500000e+00	
25	5.764048e-06	1.867995e-02	3.562901e+00	2.500000e+00	
26	6.264048e-06	1.867995e-02	3.650496e+00	2.500000e+00	
27	6.764048e-06	1.867995e-02	3.736956e+00	2.500000e+00	
28	7.264048e-06	1.867995e-02	3.822195e+00	2.500000e+00	
29	7.764048e-06	1.867995e-02	3.906129e+00	2.500000e+00	
30	8.264048e-06	1.867995e-02	3.988676e+00	2.500000e+00	
31	8.764048e-06	1.867995e-02	4.069753e+00	2.500000e+00	
32	9.264048e-06	1.867995e-02	4.149281e+00	2.500000e+00	
33	9.764048e-06	1.867995e-02	4.227182e+00	2.500000e+00	
34	1.026405e-05	1.867995e-02	4.303378e+00	2.500000e+00	
35	1.076405e-05	1.867995e-02	4.377794e+00	2.500000e+00	
36	1.126405e-05	1.867995e-02	4.450357e+00	2.500000e+00	
37	1.176405e-05	1.867995e-02	4.520995e+00	2.500000e+00	
38	1.226405e-05	1.867995e-02	4.589639e+00	2.500000e+00	
39	1.276405e-05	1.867995e-02	4.656221e+00	2.500000e+00	
40	1.326405e-05	1.867995e-02	4.720675e+00	2.500000e+00	
41	1.376405e-05	1.867995e-02	4.782937e+00	2.500000e+00	
42	1.426405e-05	1.867995e-02	4.842946e+00	2.500000e+00	
43	1.476405e-05	1.867995e-02	4.900643e+00	2.500000e+00	
44	1.526405e-05	1.867995e-02	4.955971e+00	2.500000e+00	
45	1.576405e-05	1.867995e-02	5.008875e+00	2.500000e+00	
46	1.626405e-05	1.867995e-02	5.059303e+00	2.500000e+00	
47	1.676405e-05	1.867995e-02	5.107206e+00	2.500000e+00	
48	1.726405e-05	1.867995e-02	5.152535e+00	2.500000e+00	
49	1.776405e-05	1.867995e-02	5.195247e+00	2.500000e+00	
50	1.826405e-05	1.867995e-02	5.235298e+00	2.500000e+00	
51	1.876405e-05	1.867995e-02	5.272651e+00	2.500000e+00	
52	1.926405e-05	1.867995e-02	5.307267e+00	2.500000e+00	
53	1.976405e-05	1.867995e-02	5.339113e+00	2.500000e+00	
54	2.026405e-05	1.867995e-02	5.368157e+00	2.500000e+00	

Index   time            v(4)            v(3)            v(1)            
--------------------------------------------------------------------------------
55	2.076405e-05	1.867995e-02	5.394370e+00	2.500000e+00	
56	2.126405e-05	1.867995e-02	5.417727e+00	2.500000e+00	
57	2.176405e-05	1.867995e-02	5.438204e+00	2.500000e+00	
58	2.226405e-05	1.867995e-02	5.455782e+00	2.500000e+00	
59	2.276405e-05	1.867995e-02	5.470443e+00	2.500000e+00	
60	2.326405e-05	1.867995e-02	5.482172e+00	2.500000e+00	
61	2.376405e-05	1.867995e-02	5.490959e+00	2.500000e+00	
62	2.426405e-05	1.867995e-02	5.496793e+00	2.500000e+00	
63	2.476405e-05	1.867995e-02	5.499670e+00	2.500000e+00	
64	2.526405e-05	1.867995e-02	5.499587e+00	2.500000e+00	
65	2.576405e-05	1.867995e-02	5.496544e+00	2.500000e+00	
66	2.626405e-05	1.867995e-02	5.490543e+00	2.500000e+00	
67	2.676405e-05	1.867995e-02	5.481591e+00	2.500000e+00	
68	2.726405e-05	1.867995e-02	5.469697e+00	2.500000e+00	
69	2.776405e-05	1.867995e-02	5.454872e+00	2.500000e+00	
70	2.826405e-05	1.867995e-02	5.437130e+00	2.500000e+00	
71	2.876405e-05	1.867995e-02	5.416490e+00	2.500000e+00	
72	2.926405e-05	1.867995e-02	5.392972e+00	2.500000e+00	
73	2.976405e-05	1.867995e-02	5.366599e+00	2.500000e+00	
74	3.026405e-05	1.867995e-02	5.337397e+00	2.500000e+00	
75	3.076405e-05	1.867995e-02	5.305395e+00	2.500000e+00	
76	3.126405e-05	1.867995e-02	5.270624e+00	2.500000e+00	
77	3.176405e-05	1.867995e-02	5.233119e+00	2.500000e+00	
78	3.226405e-05	1.867995e-02	5.192917e+00	2.500000e+00	
79	3.276405e-05	1.867995e-02	5.150057e+00	2.500000e+00	
80	3.326405e-05	1.867995e-02	5.104582e+00	2.500000e+00	
81	3.376405e-05	1.867995e-02	5.056536e+00	2.500000e+00	
82	3.426405e-05	1.867995e-02	5.005967e+00	2.500000e+00	
83	3.476405e-05	1.867995e-02	4.952926e+00	2.500000e+00	
84	3.526405e-05	1.867995e-02	4.897463e+00	2.500000e+00	
85	3.576405e-05	1.867995e-02	4.839635e+00	2.500000e+00	
86	3.626405e-05	1.867995e-02	4.779497e+00	2.500000e+00	
87	3.676405e-05	1.867995e-02	4.717110e+00	2.500000e+00	
88	3.726405e-05	1.867995e-02	4.652535e+00	2.500000e+00	
89	3.776405e-05	1.867995e-02	4.585836e+00	2.500000e+00	
90	3.826405e-05	1.867995e-02	4.517078e+00	2.500000e+00	
91	3.876405e-05	1.867995e-02	4.446330e+00	2.500000e+00	
92	3.926405e-05	1.867995e-02	4.373661e+00	2.500000e+00	
93	3.976405e-05	1.867995e-02	4.299142e+00	2.500000e+00	
94	4.026405e-05	1.867995e-02	4.222849e+00	2.500000e+00	
95	4.076405e-05	1.867995e-02	4.144855e+00	2.500000e+00	
96	4.126405e-05	1.867995e-02	4.065237e+00	2.500000e+00	
97	4.176405e-05	1.867995e-02	3.984075e+00	2.500000e+00	
98	4.226405e-05	1.867995e-02	3.901449e+00	2.500000e+00	
99	4.276405e-05	1.867995e-02	3.817439e+00	2.500000e+00	
100	4.326405e-05	1.867995e-02	3.732129e+00	2.500000e+00	
101	4.376405e-05	1.867995e-02	3.645603e+00	2.500000e+00	
102	4.426405e-05	1.867995e-02	3.557947e+00	2.500000e+00	
103	4.476405e-05	1.867995e-02	3.469247e+00	2.500000e+00	
104	4.526405e-05	1.867995e-02	3.379590e+00	2.500000e+00	
105	4.576405e-05	1.867995e-02	3.289065e+00	2.500000e+00	
106	4.626405e-05	1.867995e-02	3.197761e+00	2.500000e+00	
107	4.676405e-05	1.867995e-02	3.105769e+00	2.500000e+00	
108	4.726405e-05	1.867995e-02	3.013178e+00	2.500000e+00	
109	4.776405e-05	1.867995e-02	2.920082e+00	2.500000e+00	
110	4.826405e-05	1.867995e-02	2.826571e+00	2.500000e+00	
111	4.876405e-05	1.867995e-02	2.732737e+00	2.500000e+00	
112	4.926405e-05	1.867995e-02	2.638674e+00	2.500000e+00	

Index   time            v(4)            v(3)            v(1)            
--------------------------------------------------------------------------------
113	4.976405e-05	1.867995e-02	2.544474e+00	2.500000e+00	
114	5.026405e-05	1.867995e-02	2.450230e+00	2.500000e+00	
115	5.065641e-05	1.867995e-02	2.376305e+00	2.500000e+00	
116	5.077423e-05	1.867995e-02	2.354119e+00	2.500000e+00	
117	5.098184e-05	1.867995e-02	2.315045e+00	2.500000e+00	
118	5.103894e-05	1.867995e-02	2.304303e+00	2.500000e+00	
119	5.113904e-05	1.867995e-02	2.285479e+00	2.500000e+00	
120	5.116670e-05	1.867995e-02	2.280278e+00	2.500000e+00	
121	5.121513e-05	1.867995e-02	2.271175e+00	2.500000e+00	
122	5.122853e-05	1.867995e-02	2.268657e+00	2.500000e+00	
123	5.125199e-05	1.867995e-02	2.264250e+00	2.500000e+00	
124	5.125848e-05	1.867995e-02	2.263030e+00	2.500000e+00	
125	5.126984e-05	1.867995e-02	2.260895e+00	2.500000e+00	
126	5.127298e-05	1.867995e-02	2.260304e+00	2.500000e+00	
127	5.127848e-05	1.867995e-02	2.259270e+00	2.500000e+00	
128	5.128001e-05	1.867995e-02	2.258984e+00	2.500000e+00	
129	5.128267e-05	1.867995e-02	2.258483e+00	2.500000e+00	
130	5.128341e-05	1.867995e-02	2.258345e+00	2.500000e+00	
131	5.128470e-05	1.867995e-02	2.258102e+00	2.500000e+00	
132	5.128506e-05	1.867995e-02	2.258035e+00	2.500000e+00	
133	5.128569e-05	1.867995e-02	2.257917e+00	2.500000e+00	
134	5.128586e-05	1.867995e-02	2.257885e+00	2.500000e+00	
135	5.128616e-05	1.867995e-02	2.257828e+00	2.500000e+00	
136	5.128628e-05	1.867995e-02	2.257806e+00	2.500000e+00	
137	5.128635e-05	1.867995e-02	2.257792e+00	2.500000e+00	
138	5.128641e-05	1.867995e-02	2.257782e+00	2.500000e+00	
139	5.128646e-05	1.867995e-02	2.257771e+00	2.500000e+00	
140	5.128653e-05	1.867995e-02	2.257759e+00	2.500000e+00	
141	5.128654e-05	1.867995e-02	2.257756e+00	2.500000e+00	
142	5.128657e-05	1.867995e-02	2.257751e+00	2.500000e+00	
143	5.128658e-05	1.867995e-02	2.257750e+00	2.500000e+00	
144	5.128659e-05	1.867995e-02	2.257747e+00	2.500000e+00	
145	5.128659e-05	1.867995e-02	2.257747e+00	2.500000e+00	
146	5.128660e-05	1.867995e-02	2.257746e+00	2.500000e+00	
147	5.128660e-05	1.867995e-02	2.257745e+00	2.500000e+00	
148	5.128661e-05	1.867995e-02	2.257745e+00	2.500000e+00	
149	5.128661e-05	4.995005e+00	2.257744e+00	2.500000e+00	
150	5.128662e-05	4.995005e+00	2.257743e+00	2.500000e+00	
151	5.128663e-05	4.995005e+00	2.257740e+00	2.500000e+00	
152	5.128666e-05	4.995005e+00	2.257735e+00	2.500000e+00	
153	5.128671e-05	4.995005e+00	2.257725e+00	2.500000e+00	
154	5.128682e-05	4.995005e+00	2.257705e+00	2.500000e+00	
155	5.128695e-05	4.995005e+00	2.257680e+00	2.500000e+00	
156	5.128716e-05	4.995005e+00	2.257640e+00	2.500000e+00	
157	5.128739e-05	4.995005e+00	2.257597e+00	2.500000e+00	
158	5.128786e-05	4.995005e+00	2.257510e+00	2.500000e+00	
159	5.128855e-05	4.995005e+00	2.257379e+00	2.500000e+00	
160	5.128972e-05	4.995005e+00	2.257159e+00	2.500000e+00	
161	5.129163e-05	4.995005e+00	2.256800e+00	2.500000e+00	
162	5.129483e-05	4.995005e+00	2.256200e+00	2.500000e+00	
163	5.129970e-05	4.995005e+00	2.255285e+00	2.500000e+00	
164	5.130797e-05	4.995005e+00	2.253730e+00	2.500000e+00	
165	5.131767e-05	4.995005e+00	2.251908e+00	2.500000e+00	
166	5.133164e-05	4.995005e+00	2.249285e+00	2.500000e+00	
167	5.134983e-05	4.995005e+00	2.245868e+00	2.500000e+00	
168	5.135271e-05	4.995005e+00	2.245327e+00	2.500000e+00	
169	5.135848e-05	4.995005e+00	2.244244e+00	2.500000e+00	
170	5.136576e-05	4.995005e+00	2.242877e+00	2.500000e+00	

Index   time            v(4)            v(3)            v(1)            
--------------------------------------------------------------------------------
171	5.137349e-05	4.995005e+00	2.241424e+00	2.500000e+00	
172	5.138897e-05	4.995005e+00	2.238518e+00	2.500000e+00	
173	5.141991e-05	4.995005e+00	2.232707e+00	2.500000e+00	
174	5.146910e-05	4.995005e+00	2.223474e+00	2.500000e+00	
175	5.153879e-05	4.995005e+00	2.210397e+00	2.500000e+00	
176	5.166513e-05	4.995005e+00	2.186703e+00	2.500000e+00	
177	5.169576e-05	4.995005e+00	2.180962e+00	2.500000e+00	
178	5.175702e-05	4.995005e+00	2.169483e+00	2.500000e+00	
179	5.187954e-05	4.995005e+00	2.146539e+00	2.500000e+00	
180	5.191017e-05	4.995005e+00	2.140806e+00	2.500000e+00	
181	5.197142e-05	4.995005e+00	2.129345e+00	2.500000e+00	
182	5.209394e-05	4.995005e+00	2.106438e+00	2.500000e+00	
183	5.212457e-05	4.995005e+00	2.100716e+00	2.500000e+00	
184	5.218583e-05	4.995005e+00	2.089274e+00	2.500000e+00	
185	5.230835e-05	4.995005e+00	2.066410e+00	2.500000e+00	
186	5.233898e-05	4.995005e+00	2.060697e+00	2.500000e+00	
187	5.240024e-05	4.995005e+00	2.049278e+00	2.500000e+00	
188	5.252276e-05	4.995005e+00	2.026459e+00	2.500000e+00	
189	5.255339e-05	4.995005e+00	2.020759e+00	2.500000e+00	
190	5.261465e-05	4.995005e+00	2.009364e+00	2.500000e+00	
191	5.273717e-05	4.995005e+00	1.986595e+00	2.500000e+00	
192	5.276780e-05	4.995005e+00	1.980908e+00	2.500000e+00	
193	5.282906e-05	4.995005e+00	1.969538e+00	2.500000e+00	
194	5.295158e-05	4.995005e+00	1.946824e+00	2.500000e+00	
195	5.298221e-05	4.995005e+00	1.941150e+00	2.500000e+00	
196	5.304347e-05	4.995005e+00	1.929809e+00	2.500000e+00	
197	5.316599e-05	4.995005e+00	1.907153e+00	2.500000e+00	
198	5.319662e-05	4.995005e+00	1.901495e+00	2.500000e+00	
199	5.325788e-05	4.995005e+00	1.890184e+00	2.500000e+00	
200	5.338040e-05	4.995005e+00	1.867590e+00	2.500000e+00	
201	5.341103e-05	4.995005e+00	1.861947e+00	2.500000e+00	
202	5.347229e-05	4.995005e+00	1.850669e+00	2.500000e+00	
203	5.359481e-05	4.995005e+00	1.828142e+00	2.500000e+00	
204	5.362544e-05	4.995005e+00	1.822516e+00	2.500000e+00	
205	5.368670e-05	4.995005e+00	1.811272e+00	2.500000e+00	
206	5.380922e-05	4.995005e+00	1.788815e+00	2.500000e+00	
207	5.383985e-05	4.995005e+00	1.783208e+00	2.500000e+00	
208	5.390111e-05	4.995005e+00	1.772000e+00	2.500000e+00	
209	5.402362e-05	4.995005e+00	1.749618e+00	2.500000e+00	
210	5.405425e-05	4.995005e+00	1.744029e+00	2.500000e+00	
211	5.411551e-05	4.995005e+00	1.732860e+00	2.500000e+00	
212	5.423803e-05	4.995005e+00	1.710557e+00	2.500000e+00	
213	5.426866e-05	4.995005e+00	1.704988e+00	2.500000e+00	
214	5.432992e-05	4.995005e+00	1.693860e+00	2.500000e+00	
215	5.445244e-05	4.995005e+00	1.671639e+00	2.500000e+00	
216	5.448307e-05	4.995005e+00	1.666091e+00	2.500000e+00	
217	5.454433e-05	4.995005e+00	1.655005e+00	2.500000e+00	
218	5.466685e-05	4.995005e+00	1.632871e+00	2.500000e+00	
219	5.469748e-05	4.995005e+00	1.627346e+00	2.500000e+00	
220	5.475874e-05	4.995005e+00	1.616304e+00	2.500000e+00	
221	5.488126e-05	4.995005e+00	1.594261e+00	2.500000e+00	
222	5.491189e-05	4.995005e+00	1.588759e+00	2.500000e+00	
223	5.497315e-05	4.995005e+00	1.577764e+00	2.500000e+00	
224	5.509567e-05	4.995005e+00	1.555815e+00	2.500000e+00	
225	5.512630e-05	4.995005e+00	1.550337e+00	2.500000e+00	
226	5.518756e-05	4.995005e+00	1.539390e+00	2.500000e+00	
227	5.531008e-05	4.995005e+00	1.517541e+00	2.500000e+00	
228	5.534071e-05	4.995005e+00	1.512087e+00	2.500000e+00	

Index   time            v(4)            v(3)            v(1)            
--------------------------------------------------------------------------------
229	5.540197e-05	4.995005e+00	1.501192e+00	2.500000e+00	
230	5.552449e-05	4.995005e+00	1.479445e+00	2.500000e+00	
231	5.555512e-05	4.995005e+00	1.474017e+00	2.500000e+00	
232	5.561638e-05	4.995005e+00	1.463174e+00	2.500000e+00	
233	5.573890e-05	4.995005e+00	1.441534e+00	2.500000e+00	
234	5.576953e-05	4.995005e+00	1.436133e+00	2.500000e+00	
235	5.583079e-05	4.995005e+00	1.425344e+00	2.500000e+00	
236	5.595331e-05	4.995005e+00	1.403815e+00	2.500000e+00	
237	5.598394e-05	4.995005e+00	1.398442e+00	2.500000e+00	
238	5.604519e-05	4.995005e+00	1.387710e+00	2.500000e+00	
239	5.616771e-05	4.995005e+00	1.366295e+00	2.500000e+00	
240	5.619834e-05	4.995005e+00	1.360951e+00	2.500000e+00	
241	5.625960e-05	4.995005e+00	1.350277e+00	2.500000e+00	
242	5.638212e-05	4.995005e+00	1.328981e+00	2.500000e+00	
243	5.641275e-05	4.995005e+00	1.323667e+00	2.500000e+00	
244	5.647401e-05	4.995005e+00	1.313054e+00	2.500000e+00	
245	5.659653e-05	4.995005e+00	1.291879e+00	2.500000e+00	
246	5.662716e-05	4.995005e+00	1.286597e+00	2.500000e+00	
247	5.668842e-05	4.995005e+00	1.276045e+00	2.500000e+00	
248	5.681094e-05	4.995005e+00	1.254997e+00	2.500000e+00	
249	5.684157e-05	4.995005e+00	1.249746e+00	2.500000e+00	
250	5.690283e-05	4.995005e+00	1.239259e+00	2.500000e+00	
251	5.702535e-05	4.995005e+00	1.218340e+00	2.500000e+00	
252	5.705598e-05	4.995005e+00	1.213122e+00	2.500000e+00	
253	5.711724e-05	4.995005e+00	1.202701e+00	2.500000e+00	
254	5.723976e-05	4.995005e+00	1.181916e+00	2.500000e+00	
255	5.727039e-05	4.995005e+00	1.176732e+00	2.500000e+00	
256	5.733165e-05	4.995005e+00	1.166379e+00	2.500000e+00	
257	5.745417e-05	4.995005e+00	1.145732e+00	2.500000e+00	
258	5.769921e-05	4.995005e+00	1.104679e+00	2.500000e+00	
259	5.776047e-05	4.995005e+00	1.094467e+00	2.500000e+00	
260	5.788299e-05	4.995005e+00	1.074106e+00	2.500000e+00	
261	5.812802e-05	4.995005e+00	1.033639e+00	2.500000e+00	
262	5.818928e-05	4.995005e+00	1.023576e+00	2.500000e+00	
263	5.831180e-05	4.995005e+00	1.003516e+00	2.500000e+00	
264	5.855684e-05	4.995005e+00	9.636631e-01	2.500000e+00	
265	5.861810e-05	4.995005e+00	9.537564e-01	2.500000e+00	
266	5.874062e-05	4.995005e+00	9.340119e-01	2.500000e+00	
267	5.898566e-05	4.995005e+00	8.948025e-01	2.500000e+00	
268	5.904692e-05	4.995005e+00	8.850592e-01	2.500000e+00	
269	5.916944e-05	4.995005e+00	8.656446e-01	2.500000e+00	
270	5.941448e-05	4.995005e+00	8.271071e-01	2.500000e+00	
271	5.947574e-05	4.995005e+00	8.175343e-01	2.500000e+00	
272	5.959826e-05	4.995005e+00	7.984637e-01	2.500000e+00	
273	5.984330e-05	4.995005e+00	7.606261e-01	2.500000e+00	
274	5.990456e-05	4.995005e+00	7.512307e-01	2.500000e+00	
275	6.002708e-05	4.995005e+00	7.325179e-01	2.500000e+00	
276	6.027211e-05	4.995005e+00	6.954077e-01	2.500000e+00	
277	6.033337e-05	4.995005e+00	6.861966e-01	2.500000e+00	
278	6.045589e-05	4.995005e+00	6.678552e-01	2.500000e+00	
279	6.070093e-05	4.995005e+00	6.314992e-01	2.500000e+00	
280	6.076219e-05	4.995005e+00	6.224791e-01	2.500000e+00	
281	6.088471e-05	4.995005e+00	6.045224e-01	2.500000e+00	
282	6.112975e-05	4.995005e+00	5.689472e-01	2.500000e+00	
283	6.119101e-05	4.995005e+00	5.601245e-01	2.500000e+00	
284	6.131353e-05	4.995005e+00	5.425656e-01	2.500000e+00	
285	6.155857e-05	4.995005e+00	5.077968e-01	2.500000e+00	
286	6.161983e-05	4.995005e+00	4.991781e-01	2.500000e+00	

Index   time            v(4)            v(3)            v(1)            
--------------------------------------------------------------------------------
287	6.174235e-05	4.995005e+00	4.820297e-01	2.500000e+00	
288	6.198739e-05	4.995005e+00	4.480927e-01	2.500000e+00	
289	6.204865e-05	4.995005e+00	4.396841e-01	2.500000e+00	
290	6.217116e-05	4.995005e+00	4.229586e-01	2.500000e+00	
291	6.241620e-05	4.995005e+00	3.898780e-01	2.500000e+00	
292	6.247746e-05	4.995005e+00	3.816856e-01	2.500000e+00	
293	6.259998e-05	4.995005e+00	3.653953e-01	2.500000e+00	
294	6.284502e-05	4.995005e+00	3.331950e-01	2.500000e+00	
295	6.290628e-05	4.995005e+00	3.252249e-01	2.500000e+00	
296	6.302880e-05	4.995005e+00	3.093815e-01	2.500000e+00	
297	6.327384e-05	4.995005e+00	2.780850e-01	2.500000e+00	
298	6.333510e-05	4.995005e+00	2.703429e-01	2.500000e+00	
299	6.345762e-05	4.995005e+00	2.549578e-01	2.500000e+00	
300	6.370266e-05	4.995005e+00	2.245878e-01	2.500000e+00	
301	6.376392e-05	4.995005e+00	2.170793e-01	2.500000e+00	
302	6.388644e-05	4.995005e+00	2.021639e-01	2.500000e+00	
303	6.413147e-05	4.995005e+00	1.727424e-01	2.500000e+00	
304	6.419273e-05	4.995005e+00	1.654730e-01	2.500000e+00	
305	6.431525e-05	4.995005e+00	1.510379e-01	2.500000e+00	
306	6.456029e-05	4.995005e+00	1.225863e-01	2.500000e+00	
307	6.462155e-05	4.995005e+00	1.155612e-01	2.500000e+00	
308	6.474407e-05	4.995005e+00	1.016171e-01	2.500000e+00	
309	6.498911e-05	4.995005e+00	7.415606e-02	2.500000e+00	
310	6.505037e-05	4.995005e+00	6.738040e-02	2.500000e+00	
311	6.517289e-05	4.995005e+00	5.393729e-02	2.500000e+00	
312	6.541793e-05	4.995005e+00	2.748671e-02	2.500000e+00	
313	6.547919e-05	4.995005e+00	2.096540e-02	2.500000e+00	
314	6.560171e-05	4.995005e+00	8.033065e-03	2.500000e+00	
315	6.584675e-05	4.995005e+00	-1.73878e-02	2.500000e+00	
316	6.590801e-05	4.995005e+00	-2.36500e-02	2.500000e+00	
317	6.603053e-05	4.995005e+00	-3.60622e-02	2.500000e+00	
318	6.627556e-05	4.995005e+00	-6.04350e-02	2.500000e+00	
319	6.633682e-05	4.995005e+00	-6.64336e-02	2.500000e+00	
320	6.645934e-05	4.995005e+00	-7.83166e-02	2.500000e+00	
321	6.670438e-05	4.995005e+00	-1.01624e-01	2.500000e+00	
322	6.676564e-05	4.995005e+00	-1.07354e-01	2.500000e+00	
323	6.688816e-05	4.995005e+00	-1.18699e-01	2.500000e+00	
324	6.713320e-05	4.995005e+00	-1.40924e-01	2.500000e+00	
325	6.719446e-05	4.995005e+00	-1.46382e-01	2.500000e+00	
326	6.731698e-05	4.995005e+00	-1.57181e-01	2.500000e+00	
327	6.756202e-05	4.995005e+00	-1.78306e-01	2.500000e+00	
328	6.805210e-05	4.995005e+00	-2.18648e-01	2.500000e+00	
329	6.855210e-05	4.995005e+00	-2.57149e-01	2.500000e+00	
330	6.905210e-05	4.995005e+00	-2.92929e-01	2.500000e+00	
331	6.955210e-05	4.995005e+00	-3.25954e-01	2.500000e+00	
332	7.005210e-05	4.995005e+00	-3.56189e-01	2.500000e+00	
333	7.055210e-05	4.995005e+00	-3.83605e-01	2.500000e+00	
334	7.105210e-05	4.995005e+00	-4.08176e-01	2.500000e+00	
335	7.155210e-05	4.995005e+00	-4.29877e-01	2.500000e+00	
336	7.205210e-05	4.995005e+00	-4.48686e-01	2.500000e+00	
337	7.255210e-05	4.995005e+00	-4.64585e-01	2.500000e+00	
338	7.305210e-05	4.995005e+00	-4.77559e-01	2.500000e+00	
339	7.355210e-05	4.995005e+00	-4.87594e-01	2.500000e+00	
340	7.405210e-05	4.995005e+00	-4.94681e-01	2.500000e+00	
341	7.455210e-05	4.995005e+00	-4.98812e-01	2.500000e+00	
342	7.505210e-05	4.995005e+00	-4.99984e-01	2.500000e+00	
343	7.555210e-05	4.995005e+00	-4.98195e-01	2.500000e+00	
344	7.605210e-05	4.995005e+00	-4.93448e-01	2.500000e+00	

Index   time            v(4)            v(3)            v(1)            
--------------------------------------------------------------------------------
345	7.655210e-05	4.995005e+00	-4.85746e-01	2.500000e+00	
346	7.705210e-05	4.995005e+00	-4.75097e-01	2.500000e+00	
347	7.755210e-05	4.995005e+00	-4.61513e-01	2.500000e+00	
348	7.805210e-05	4.995005e+00	-4.45006e-01	2.500000e+00	
349	7.855210e-05	4.995005e+00	-4.25592e-01	2.500000e+00	
350	7.905210e-05	4.995005e+00	-4.03292e-01	2.500000e+00	
351	7.955210e-05	4.995005e+00	-3.78126e-01	2.500000e+00	
352	8.005210e-05	4.995005e+00	-3.50120e-01	2.500000e+00	
353	8.055210e-05	4.995005e+00	-3.19301e-01	2.500000e+00	
354	8.105210e-05	4.995005e+00	-2.85700e-01	2.500000e+00	
355	8.155210e-05	4.995005e+00	-2.49349e-01	2.500000e+00	
356	8.205210e-05	4.995005e+00	-2.10286e-01	2.500000e+00	
357	8.255210e-05	4.995005e+00	-1.68547e-01	2.500000e+00	
358	8.261460e-05	4.995005e+00	-1.63144e-01	2.500000e+00	
359	8.273960e-05	4.995005e+00	-1.52214e-01	2.500000e+00	
360	8.298960e-05	4.995005e+00	-1.29864e-01	2.500000e+00	
361	8.305210e-05	4.995005e+00	-1.24175e-01	2.500000e+00	
362	8.317710e-05	4.995005e+00	-1.12676e-01	2.500000e+00	
363	8.342710e-05	4.995005e+00	-8.91943e-02	2.500000e+00	
364	8.348960e-05	4.995005e+00	-8.32239e-02	2.500000e+00	
365	8.361460e-05	4.995005e+00	-7.11636e-02	2.500000e+00	
366	8.386460e-05	4.995005e+00	-4.65679e-02	2.500000e+00	
367	8.392710e-05	4.995005e+00	-4.03206e-02	2.500000e+00	
368	8.405210e-05	4.995005e+00	-2.77085e-02	2.500000e+00	
369	8.430210e-05	4.995005e+00	-2.01738e-03	2.500000e+00	
370	8.436460e-05	4.995005e+00	4.502119e-03	2.500000e+00	
371	8.448960e-05	4.995005e+00	1.765646e-02	2.500000e+00	
372	8.473960e-05	4.995005e+00	4.442368e-02	2.500000e+00	
373	8.480210e-05	4.995005e+00	5.121041e-02	2.500000e+00	
374	8.492710e-05	4.995005e+00	6.489707e-02	2.500000e+00	
375	8.517710e-05	4.995005e+00	9.272015e-02	2.500000e+00	
376	8.523960e-05	4.995005e+00	9.976900e-02	2.500000e+00	
377	8.536460e-05	4.995005e+00	1.139776e-01	2.500000e+00	
378	8.561460e-05	4.995005e+00	1.428356e-01	2.500000e+00	
379	8.567710e-05	4.995005e+00	1.501412e-01	2.500000e+00	
380	8.580210e-05	4.995005e+00	1.648611e-01	2.500000e+00	
381	8.605210e-05	4.995005e+00	1.947320e-01	2.500000e+00	
382	8.611460e-05	4.995005e+00	2.022889e-01	2.500000e+00	
383	8.623960e-05	4.995005e+00	2.175089e-01	2.500000e+00	
384	8.648960e-05	4.995005e+00	2.483703e-01	2.500000e+00	
385	8.655210e-05	4.995005e+00	2.561728e-01	2.500000e+00	
386	8.667710e-05	4.995005e+00	2.718814e-01	2.500000e+00	
387	8.692710e-05	4.995005e+00	3.037099e-01	2.500000e+00	
388	8.698960e-05	4.995005e+00	3.117521e-01	2.500000e+00	
389	8.711460e-05	4.995005e+00	3.279374e-01	2.500000e+00	
390	8.736460e-05	4.995005e+00	3.607091e-01	2.500000e+00	
391	8.742710e-05	4.995005e+00	3.689848e-01	2.500000e+00	
392	8.755210e-05	4.995005e+00	3.856346e-01	2.500000e+00	
393	8.780210e-05	4.995005e+00	4.193246e-01	2.500000e+00	
394	8.786460e-05	4.995005e+00	4.278277e-01	2.500000e+00	
395	8.798960e-05	4.995005e+00	4.449295e-01	2.500000e+00	
396	8.823960e-05	4.995005e+00	4.795123e-01	2.500000e+00	
397	8.830210e-05	4.995005e+00	4.882363e-01	2.500000e+00	
398	8.842710e-05	4.995005e+00	5.057771e-01	2.500000e+00	
399	8.867710e-05	4.995005e+00	5.412267e-01	2.500000e+00	
400	8.873960e-05	4.995005e+00	5.501650e-01	2.500000e+00	
401	8.886460e-05	4.995005e+00	5.681316e-01	2.500000e+00	
402	8.911460e-05	4.995005e+00	6.044211e-01	2.500000e+00	

Index   time            v(4)            v(3)            v(1)            
--------------------------------------------------------------------------------
403	8.917710e-05	4.995005e+00	6.135669e-01	2.500000e+00	
404	8.930210e-05	4.995005e+00	6.319457e-01	2.500000e+00	
405	8.955210e-05	4.995005e+00	6.690478e-01	2.500000e+00	
406	8.961460e-05	4.995005e+00	6.783943e-01	2.500000e+00	
407	8.973960e-05	4.995005e+00	6.971714e-01	2.500000e+00	
408	8.998960e-05	4.995005e+00	7.350580e-01	2.500000e+00	
409	9.005210e-05	4.995005e+00	7.445980e-01	2.500000e+00	
410	9.017710e-05	4.995005e+00	7.637592e-01	2.500000e+00	
411	9.042710e-05	4.995005e+00	8.024017e-01	2.500000e+00	
412	9.048960e-05	4.995005e+00	8.121282e-01	2.500000e+00	
413	9.061460e-05	4.995005e+00	8.316590e-01	2.500000e+00	
414	9.086460e-05	4.995005e+00	8.710282e-01	2.500000e+00	
415	9.092710e-05	4.995005e+00	8.809336e-01	2.500000e+00	
416	9.105210e-05	4.995005e+00	9.008193e-01	2.500000e+00	
417	9.130210e-05	4.995005e+00	9.408854e-01	2.500000e+00	
418	9.136460e-05	4.995005e+00	9.509625e-01	2.500000e+00	
419	9.148960e-05	4.995005e+00	9.711880e-01	2.500000e+00	
420	9.173960e-05	4.995005e+00	1.011921e+00	2.500000e+00	
421	9.180210e-05	4.995005e+00	1.022162e+00	2.500000e+00	
422	9.192710e-05	4.995005e+00	1.042712e+00	2.500000e+00	
423	9.217710e-05	4.995005e+00	1.084080e+00	2.500000e+00	
424	9.223960e-05	4.995005e+00	1.094478e+00	2.500000e+00	
425	9.236460e-05	4.995005e+00	1.115337e+00	2.500000e+00	
426	9.239585e-05	4.995005e+00	1.120565e+00	2.500000e+00	
427	9.245835e-05	4.995005e+00	1.131037e+00	2.500000e+00	
428	9.258335e-05	4.995005e+00	1.152045e+00	2.500000e+00	
429	9.261460e-05	4.995005e+00	1.157310e+00	2.500000e+00	
430	9.267710e-05	4.995005e+00	1.167856e+00	2.500000e+00	
431	9.280210e-05	4.995005e+00	1.189008e+00	2.500000e+00	
432	9.283335e-05	4.995005e+00	1.194309e+00	2.500000e+00	
433	9.289585e-05	4.995005e+00	1.204925e+00	2.500000e+00	
434	9.302085e-05	4.995005e+00	1.226219e+00	2.500000e+00	
435	9.305210e-05	4.995005e+00	1.231554e+00	2.500000e+00	
436	9.311460e-05	4.995005e+00	1.242240e+00	2.500000e+00	
437	9.323960e-05	4.995005e+00	1.263670e+00	2.500000e+00	
438	9.327085e-05	4.995005e+00	1.269039e+00	2.500000e+00	
439	9.333335e-05	4.995005e+00	1.279792e+00	2.500000e+00	
440	9.345835e-05	4.995005e+00	1.301355e+00	2.500000e+00	
441	9.348960e-05	4.995005e+00	1.306757e+00	2.500000e+00	
442	9.355210e-05	4.995005e+00	1.317575e+00	2.500000e+00	
443	9.367710e-05	4.995005e+00	1.339266e+00	2.500000e+00	
444	9.370835e-05	4.995005e+00	1.344700e+00	2.500000e+00	
445	9.377085e-05	4.995005e+00	1.355581e+00	2.500000e+00	
446	9.389585e-05	4.995005e+00	1.377396e+00	2.500000e+00	
447	9.392710e-05	4.995005e+00	1.382861e+00	2.500000e+00	
448	9.398960e-05	4.995005e+00	1.393803e+00	2.500000e+00	
449	9.411460e-05	4.995005e+00	1.415739e+00	2.500000e+00	
450	9.414585e-05	4.995005e+00	1.421233e+00	2.500000e+00	
451	9.420835e-05	4.995005e+00	1.432234e+00	2.500000e+00	
452	9.433335e-05	4.995005e+00	1.454286e+00	2.500000e+00	
453	9.436460e-05	4.995005e+00	1.459809e+00	2.500000e+00	
454	9.442710e-05	4.995005e+00	1.470867e+00	2.500000e+00	
455	9.455210e-05	4.995005e+00	1.493031e+00	2.500000e+00	
456	9.458335e-05	4.995005e+00	1.498582e+00	2.500000e+00	
457	9.464585e-05	4.995005e+00	1.509695e+00	2.500000e+00	
458	9.477085e-05	4.995005e+00	1.531966e+00	2.500000e+00	
459	9.480210e-05	4.995005e+00	1.537543e+00	2.500000e+00	
460	9.486460e-05	4.995005e+00	1.548709e+00	2.500000e+00	

Index   time            v(4)            v(3)            v(1)            
--------------------------------------------------------------------------------
461	9.498960e-05	4.995005e+00	1.571084e+00	2.500000e+00	
462	9.502085e-05	4.995005e+00	1.576687e+00	2.500000e+00	
463	9.508335e-05	4.995005e+00	1.587903e+00	2.500000e+00	
464	9.520835e-05	4.995005e+00	1.610377e+00	2.500000e+00	
465	9.523960e-05	4.995005e+00	1.616005e+00	2.500000e+00	
466	9.530210e-05	4.995005e+00	1.627269e+00	2.500000e+00	
467	9.542710e-05	4.995005e+00	1.649839e+00	2.500000e+00	
468	9.545835e-05	4.995005e+00	1.655490e+00	2.500000e+00	
469	9.552085e-05	4.995005e+00	1.666801e+00	2.500000e+00	
470	9.564585e-05	4.995005e+00	1.689461e+00	2.500000e+00	
471	9.567710e-05	4.995005e+00	1.695134e+00	2.500000e+00	
472	9.573960e-05	4.995005e+00	1.706489e+00	2.500000e+00	
473	9.586460e-05	4.995005e+00	1.729236e+00	2.500000e+00	
474	9.589585e-05	4.995005e+00	1.734931e+00	2.500000e+00	
475	9.595835e-05	4.995005e+00	1.746328e+00	2.500000e+00	
476	9.608335e-05	4.995005e+00	1.769157e+00	2.500000e+00	
477	9.611460e-05	4.995005e+00	1.774872e+00	2.500000e+00	
478	9.617710e-05	4.995005e+00	1.786309e+00	2.500000e+00	
479	9.630210e-05	4.995005e+00	1.809216e+00	2.500000e+00	
480	9.633335e-05	4.995005e+00	1.814950e+00	2.500000e+00	
481	9.639585e-05	4.995005e+00	1.826425e+00	2.500000e+00	
482	9.652085e-05	4.995005e+00	1.849406e+00	2.500000e+00	
483	9.655210e-05	4.995005e+00	1.855157e+00	2.500000e+00	
484	9.661460e-05	4.995005e+00	1.866668e+00	2.500000e+00	
485	9.673960e-05	4.995005e+00	1.889718e+00	2.500000e+00	
486	9.677085e-05	4.995005e+00	1.895486e+00	2.500000e+00	
487	9.683335e-05	4.995005e+00	1.907030e+00	2.500000e+00	
488	9.695835e-05	4.995005e+00	1.930145e+00	2.500000e+00	
489	9.698960e-05	4.995005e+00	1.935930e+00	2.500000e+00	
490	9.705210e-05	4.995005e+00	1.947505e+00	2.500000e+00	
491	9.717710e-05	4.995005e+00	1.970681e+00	2.500000e+00	
492	9.720835e-05	4.995005e+00	1.976480e+00	2.500000e+00	
493	9.727085e-05	4.995005e+00	1.988084e+00	2.500000e+00	
494	9.739585e-05	4.995005e+00	2.011316e+00	2.500000e+00	
495	9.742710e-05	4.995005e+00	2.017129e+00	2.500000e+00	
496	9.748960e-05	4.995005e+00	2.028760e+00	2.500000e+00	
497	9.761460e-05	4.995005e+00	2.052043e+00	2.500000e+00	
498	9.764585e-05	4.995005e+00	2.057869e+00	2.500000e+00	
499	9.770835e-05	4.995005e+00	2.069524e+00	2.500000e+00	
500	9.783335e-05	4.995005e+00	2.092856e+00	2.500000e+00	
501	9.786460e-05	4.995005e+00	2.098692e+00	2.500000e+00	
502	9.792710e-05	4.995005e+00	2.110370e+00	2.500000e+00	
503	9.805210e-05	4.995005e+00	2.133745e+00	2.500000e+00	
504	9.808335e-05	4.995005e+00	2.139592e+00	2.500000e+00	
505	9.814585e-05	4.995005e+00	2.151290e+00	2.500000e+00	
506	9.827085e-05	4.995005e+00	2.174703e+00	2.500000e+00	
507	9.830210e-05	4.995005e+00	2.180559e+00	2.500000e+00	
508	9.836460e-05	4.995005e+00	2.192276e+00	2.500000e+00	
509	9.848960e-05	4.995005e+00	2.215723e+00	2.500000e+00	
510	9.852085e-05	4.995005e+00	2.221587e+00	2.500000e+00	
511	9.858335e-05	4.995005e+00	2.233319e+00	2.500000e+00	
512	9.870835e-05	4.995005e+00	2.256796e+00	2.500000e+00	
513	9.873960e-05	4.995005e+00	2.262668e+00	2.500000e+00	
514	9.880210e-05	4.995005e+00	2.274413e+00	2.500000e+00	
515	9.892710e-05	4.995005e+00	2.297915e+00	2.500000e+00	
516	9.895835e-05	4.995005e+00	2.303793e+00	2.500000e+00	
517	9.902085e-05	4.995005e+00	2.315550e+00	2.500000e+00	
518	9.914585e-05	4.995005e+00	2.339073e+00	2.500000e+00	

Index   time            v(4)            v(3)            v(1)            
--------------------------------------------------------------------------------
519	9.917710e-05	4.995005e+00	2.344955e+00	2.500000e+00	
520	9.923960e-05	4.995005e+00	2.356722e+00	2.500000e+00	
521	9.936460e-05	4.995005e+00	2.380261e+00	2.500000e+00	
522	9.961460e-05	4.995005e+00	2.427360e+00	2.500000e+00	
523	9.971149e-05	4.995005e+00	2.445619e+00	2.500000e+00	
524	9.988175e-05	4.995005e+00	2.477711e+00	2.500000e+00	
525	9.992869e-05	4.995005e+00	2.486559e+00	2.500000e+00	
526	1.000109e-04	4.995005e+00	2.502062e+00	2.500000e+00	
527	1.000337e-04	4.995005e+00	2.506350e+00	2.500000e+00	
528	1.000735e-04	4.995005e+00	2.513851e+00	2.500000e+00	
529	1.000845e-04	4.995005e+00	2.515929e+00	2.500000e+00	
530	1.001038e-04	4.995005e+00	2.519561e+00	2.500000e+00	
531	1.001091e-04	4.995005e+00	2.520570e+00	2.500000e+00	
532	1.001184e-04	4.995005e+00	2.522325e+00	2.500000e+00	
533	1.001218e-04	4.995005e+00	2.522952e+00	2.500000e+00	
534	1.001247e-04	4.995005e+00	2.523496e+00	2.500000e+00	
535	1.001261e-04	4.995005e+00	2.523766e+00	2.500000e+00	
536	1.001286e-04	4.995005e+00	2.524235e+00	2.500000e+00	
537	1.001293e-04	4.995005e+00	2.524366e+00	2.500000e+00	
538	1.001305e-04	4.995005e+00	2.524594e+00	2.500000e+00	
539	1.001308e-04	4.995005e+00	2.524657e+00	2.500000e+00	
540	1.001314e-04	4.995005e+00	2.524768e+00	2.500000e+00	
541	1.001316e-04	4.995005e+00	2.524798e+00	2.500000e+00	
542	1.001318e-04	4.995005e+00	2.524852e+00	2.500000e+00	
543	1.001319e-04	4.995005e+00	2.524867e+00	2.500000e+00	
544	1.001321e-04	4.995005e+00	2.524893e+00	2.500000e+00	
545	1.001321e-04	4.995005e+00	2.524900e+00	2.500000e+00	
546	1.001322e-04	4.995005e+00	2.524913e+00	2.500000e+00	
547	1.001322e-04	4.995005e+00	2.524916e+00	2.500000e+00	
548	1.001322e-04	4.995005e+00	2.524922e+00	2.500000e+00	
549	1.001323e-04	1.867995e-02	2.524929e+00	2.500000e+00	
550	1.001323e-04	1.867995e-02	2.524943e+00	2.500000e+00	
551	1.001325e-04	1.867995e-02	2.524970e+00	2.500000e+00	
552	1.001328e-04	1.867995e-02	2.525024e+00	2.500000e+00	
553	1.001333e-04	1.867995e-02	2.525132e+00	2.500000e+00	
554	1.001345e-04	1.867995e-02	2.525348e+00	2.500000e+00	
555	1.001368e-04	1.867995e-02	2.525780e+00	2.500000e+00	
556	1.001414e-04	1.867995e-02	2.526644e+00	2.500000e+00	
557	1.001505e-04	1.867995e-02	2.528373e+00	2.500000e+00	
558	1.001689e-04	1.867995e-02	2.531830e+00	2.500000e+00	
559	1.001897e-04	1.867995e-02	2.535757e+00	2.500000e+00	
560	1.002098e-04	1.867995e-02	2.539542e+00	2.500000e+00	
561	1.002224e-04	1.867995e-02	2.541913e+00	2.500000e+00	
562	1.002344e-04	1.867995e-02	2.544185e+00	2.500000e+00	
563	1.002514e-04	1.867995e-02	2.547381e+00	2.500000e+00	
564	1.002853e-04	1.867995e-02	2.553773e+00	2.500000e+00	
565	1.003531e-04	1.867995e-02	2.566556e+00	2.500000e+00	
566	1.004888e-04	1.867995e-02	2.592117e+00	2.500000e+00	
567	1.007601e-04	1.867995e-02	2.643218e+00	2.500000e+00	
568	1.012601e-04	1.867995e-02	2.737272e+00	2.500000e+00	
569	1.017601e-04	1.867995e-02	2.831092e+00	2.500000e+00	
570	1.022601e-04	1.867995e-02	2.924586e+00	2.500000e+00	
571	1.027601e-04	1.867995e-02	3.017660e+00	2.500000e+00	
572	1.032601e-04	1.867995e-02	3.110223e+00	2.500000e+00	
573	1.037601e-04	1.867995e-02	3.202184e+00	2.500000e+00	
574	1.042601e-04	1.867995e-02	3.293453e+00	2.500000e+00	
575	1.047601e-04	1.867995e-02	3.383938e+00	2.500000e+00	
576	1.052601e-04	1.867995e-02	3.473550e+00	2.500000e+00	

Index   time            v(4)            v(3)            v(1)            
--------------------------------------------------------------------------------
577	1.057601e-04	1.867995e-02	3.562202e+00	2.500000e+00	
578	1.062601e-04	1.867995e-02	3.649806e+00	2.500000e+00	
579	1.067601e-04	1.867995e-02	3.736275e+00	2.500000e+00	
580	1.072601e-04	1.867995e-02	3.821524e+00	2.500000e+00	
581	1.077601e-04	1.867995e-02	3.905469e+00	2.500000e+00	
582	1.082601e-04	1.867995e-02	3.988027e+00	2.500000e+00	
583	1.087601e-04	1.867995e-02	4.069116e+00	2.500000e+00	
584	1.092601e-04	1.867995e-02	4.148657e+00	2.500000e+00	
585	1.097601e-04	1.867995e-02	4.226571e+00	2.500000e+00	
586	1.102601e-04	1.867995e-02	4.302780e+00	2.500000e+00	
587	1.107601e-04	1.867995e-02	4.377211e+00	2.500000e+00	
588	1.112601e-04	1.867995e-02	4.449789e+00	2.500000e+00	
589	1.117601e-04	1.867995e-02	4.520443e+00	2.500000e+00	
590	1.122601e-04	1.867995e-02	4.589103e+00	2.500000e+00	
591	1.127601e-04	1.867995e-02	4.655701e+00	2.500000e+00	
592	1.132601e-04	1.867995e-02	4.720172e+00	2.500000e+00	
593	1.137601e-04	1.867995e-02	4.782452e+00	2.500000e+00	
594	1.142601e-04	1.867995e-02	4.842479e+00	2.500000e+00	
595	1.147601e-04	1.867995e-02	4.900195e+00	2.500000e+00	
596	1.152601e-04	1.867995e-02	4.955542e+00	2.500000e+00	
597	1.157601e-04	1.867995e-02	5.008465e+00	2.500000e+00	
598	1.162601e-04	1.867995e-02	5.058913e+00	2.500000e+00	
599	1.167601e-04	1.867995e-02	5.106836e+00	2.500000e+00	
600	1.172601e-04	1.867995e-02	5.152186e+00	2.500000e+00	
601	1.177601e-04	1.867995e-02	5.194918e+00	2.500000e+00	
602	1.182601e-04	1.867995e-02	5.234992e+00	2.500000e+00	
603	1.187601e-04	1.867995e-02	5.272365e+00	2.500000e+00	
604	1.192601e-04	1.867995e-02	5.307003e+00	2.500000e+00	
605	1.197601e-04	1.867995e-02	5.338871e+00	2.500000e+00	
606	1.202601e-04	1.867995e-02	5.367937e+00	2.500000e+00	
607	1.207601e-04	1.867995e-02	5.394173e+00	2.500000e+00	
608	1.212601e-04	1.867995e-02	5.417553e+00	2.500000e+00	
609	1.217601e-04	1.867995e-02	5.438053e+00	2.500000e+00	
610	1.222601e-04	1.867995e-02	5.455654e+00	2.500000e+00	
611	1.227601e-04	1.867995e-02	5.470338e+00	2.500000e+00	
612	1.232601e-04	1.867995e-02	5.482091e+00	2.500000e+00	
613	1.237601e-04	1.867995e-02	5.490901e+00	2.500000e+00	
614	1.242601e-04	1.867995e-02	5.496759e+00	2.500000e+00	
615	1.247601e-04	1.867995e-02	5.499659e+00	2.500000e+00	
616	1.252601e-04	1.867995e-02	5.499599e+00	2.500000e+00	
617	1.257601e-04	1.867995e-02	5.496579e+00	2.500000e+00	
618	1.262601e-04	1.867995e-02	5.490602e+00	2.500000e+00	
619	1.267601e-04	1.867995e-02	5.481674e+00	2.500000e+00	
620	1.272601e-04	1.867995e-02	5.469803e+00	2.500000e+00	
621	1.277601e-04	1.867995e-02	5.455001e+00	2.500000e+00	
622	1.282601e-04	1.867995e-02	5.437282e+00	2.500000e+00	
623	1.287601e-04	1.867995e-02	5.416665e+00	2.500000e+00	
624	1.292601e-04	1.867995e-02	5.393170e+00	2.500000e+00	
625	1.297601e-04	1.867995e-02	5.366820e+00	2.500000e+00	
626	1.302601e-04	1.867995e-02	5.337640e+00	2.500000e+00	
627	1.307601e-04	1.867995e-02	5.305660e+00	2.500000e+00	
628	1.312601e-04	1.867995e-02	5.270911e+00	2.500000e+00	
629	1.317601e-04	1.867995e-02	5.233427e+00	2.500000e+00	
630	1.322601e-04	1.867995e-02	5.193246e+00	2.500000e+00	
631	1.327601e-04	1.867995e-02	5.150407e+00	2.500000e+00	
632	1.332601e-04	1.867995e-02	5.104952e+00	2.500000e+00	
633	1.337601e-04	1.867995e-02	5.056927e+00	2.500000e+00	
634	1.342601e-04	1.867995e-02	5.006378e+00	2.500000e+00	

Index   time            v(4)            v(3)            v(1)            
--------------------------------------------------------------------------------
635	1.347601e-04	1.867995e-02	4.953356e+00	2.500000e+00	
636	1.352601e-04	1.867995e-02	4.897912e+00	2.500000e+00	
637	1.357601e-04	1.867995e-02	4.840102e+00	2.500000e+00	
638	1.362601e-04	1.867995e-02	4.779983e+00	2.500000e+00	
639	1.367601e-04	1.867995e-02	4.717614e+00	2.500000e+00	
640	1.372601e-04	1.867995e-02	4.653056e+00	2.500000e+00	
641	1.377601e-04	1.867995e-02	4.586373e+00	2.500000e+00	
642	1.382601e-04	1.867995e-02	4.517631e+00	2.500000e+00	
643	1.387601e-04	1.867995e-02	4.446898e+00	2.500000e+00	
644	1.392601e-04	1.867995e-02	4.374244e+00	2.500000e+00	
645	1.397601e-04	1.867995e-02	4.299740e+00	2.500000e+00	
646	1.402601e-04	1.867995e-02	4.223460e+00	2.500000e+00	
647	1.407601e-04	1.867995e-02	4.145479e+00	2.500000e+00	
648	1.412601e-04	1.867995e-02	4.065875e+00	2.500000e+00	
649	1.417601e-04	1.867995e-02	3.984725e+00	2.500000e+00	
650	1.422601e-04	1.867995e-02	3.902109e+00	2.500000e+00	
651	1.427601e-04	1.867995e-02	3.818110e+00	2.500000e+00	
652	1.432601e-04	1.867995e-02	3.732810e+00	2.500000e+00	
653	1.437601e-04	1.867995e-02	3.646294e+00	2.500000e+00	
654	1.442601e-04	1.867995e-02	3.558646e+00	2.500000e+00	
655	1.447601e-04	1.867995e-02	3.469954e+00	2.500000e+00	
656	1.452601e-04	1.867995e-02	3.380304e+00	2.500000e+00	
657	1.457601e-04	1.867995e-02	3.289785e+00	2.500000e+00	
658	1.462601e-04	1.867995e-02	3.198488e+00	2.500000e+00	
659	1.467601e-04	1.867995e-02	3.106500e+00	2.500000e+00	
660	1.472601e-04	1.867995e-02	3.013915e+00	2.500000e+00	
661	1.477601e-04	1.867995e-02	2.920822e+00	2.500000e+00	
662	1.482601e-04	1.867995e-02	2.827313e+00	2.500000e+00	
663	1.487601e-04	1.867995e-02	2.733482e+00	2.500000e+00	
664	1.492601e-04	1.867995e-02	2.639421e+00	2.500000e+00	
665	1.497601e-04	1.867995e-02	2.545221e+00	2.500000e+00	
666	1.502601e-04	1.867995e-02	2.450977e+00	2.500000e+00	
667	1.506554e-04	1.867995e-02	2.376491e+00	2.500000e+00	
668	1.507734e-04	1.867995e-02	2.354271e+00	2.500000e+00	
669	1.509814e-04	1.867995e-02	2.315134e+00	2.500000e+00	
670	1.510386e-04	1.867995e-02	2.304375e+00	2.500000e+00	
671	1.511388e-04	1.867995e-02	2.285523e+00	2.500000e+00	
672	1.511665e-04	1.867995e-02	2.280313e+00	2.500000e+00	
673	1.512150e-04	1.867995e-02	2.271196e+00	2.500000e+00	
674	1.512284e-04	1.867995e-02	2.268674e+00	2.500000e+00	
675	1.512519e-04	1.867995e-02	2.264260e+00	2.500000e+00	
676	1.512584e-04	1.867995e-02	2.263038e+00	2.500000e+00	
677	1.512698e-04	1.867995e-02	2.260900e+00	2.500000e+00	
678	1.512730e-04	1.867995e-02	2.260309e+00	2.500000e+00	
679	1.512785e-04	1.867995e-02	2.259273e+00	2.500000e+00	
680	1.512800e-04	1.867995e-02	2.258986e+00	2.500000e+00	
681	1.512827e-04	1.867995e-02	2.258485e+00	2.500000e+00	
682	1.512834e-04	1.867995e-02	2.258346e+00	2.500000e+00	
683	1.512847e-04	1.867995e-02	2.258103e+00	2.500000e+00	
684	1.512851e-04	1.867995e-02	2.258036e+00	2.500000e+00	
685	1.512857e-04	1.867995e-02	2.257920e+00	2.500000e+00	
686	1.512859e-04	1.867995e-02	2.257870e+00	2.500000e+00	
687	1.512861e-04	1.867995e-02	2.257839e+00	2.500000e+00	
688	1.512862e-04	1.867995e-02	2.257816e+00	2.500000e+00	
689	1.512863e-04	1.867995e-02	2.257805e+00	2.500000e+00	
690	1.512863e-04	1.867995e-02	2.257800e+00	2.500000e+00	
691	1.512863e-04	1.867995e-02	2.257794e+00	2.500000e+00	
692	1.512864e-04	1.867995e-02	2.257788e+00	2.500000e+00	

Index   time            v(4)            v(3)            v(1)            
--------------------------------------------------------------------------------
693	1.512864e-04	1.867995e-02	2.257776e+00	2.500000e+00	
694	1.512865e-04	1.867995e-02	2.257770e+00	2.500000e+00	
695	1.512865e-04	1.867995e-02	2.257760e+00	2.500000e+00	
696	1.512865e-04	1.867995e-02	2.257757e+00	2.500000e+00	
697	1.512866e-04	1.867995e-02	2.257752e+00	2.500000e+00	
698	1.512866e-04	1.867995e-02	2.257751e+00	2.500000e+00	
699	1.512866e-04	1.867995e-02	2.257748e+00	2.500000e+00	
700	1.512866e-04	1.867995e-02	2.257747e+00	2.500000e+00	
701	1.512866e-04	1.867995e-02	2.257746e+00	2.500000e+00	
702	1.512866e-04	1.867995e-02	2.257746e+00	2.500000e+00	
703	1.512866e-04	1.867995e-02	2.257745e+00	2.500000e+00	
704	1.512866e-04	4.995005e+00	2.257745e+00	2.500000e+00	
705	1.512866e-04	4.995005e+00	2.257743e+00	2.500000e+00	
706	1.512866e-04	4.995005e+00	2.257741e+00	2.500000e+00	
707	1.512867e-04	4.995005e+00	2.257735e+00	2.500000e+00	
708	1.512867e-04	4.995005e+00	2.257725e+00	2.500000e+00	
709	1.512868e-04	4.995005e+00	2.257704e+00	2.500000e+00	
710	1.512870e-04	4.995005e+00	2.257679e+00	2.500000e+00	
711	1.512872e-04	4.995005e+00	2.257638e+00	2.500000e+00	
712	1.512874e-04	4.995005e+00	2.257594e+00	2.500000e+00	
713	1.512879e-04	4.995005e+00	2.257505e+00	2.500000e+00	
714	1.512886e-04	4.995005e+00	2.257371e+00	2.500000e+00	
715	1.512898e-04	4.995005e+00	2.257145e+00	2.500000e+00	
716	1.512917e-04	4.995005e+00	2.256779e+00	2.500000e+00	
717	1.512951e-04	4.995005e+00	2.256158e+00	2.500000e+00	
718	1.513000e-04	4.995005e+00	2.255233e+00	2.500000e+00	
719	1.513087e-04	4.995005e+00	2.253602e+00	2.500000e+00	
720	1.513169e-04	4.995005e+00	2.252048e+00	2.500000e+00	
721	1.513237e-04	4.995005e+00	2.250775e+00	2.500000e+00	
722	1.513284e-04	4.995005e+00	2.249888e+00	2.500000e+00	
723	1.513331e-04	4.995005e+00	2.249003e+00	2.500000e+00	
724	1.513395e-04	4.995005e+00	2.247814e+00	2.500000e+00	
725	1.513460e-04	4.995005e+00	2.246588e+00	2.500000e+00	
726	1.513590e-04	4.995005e+00	2.244137e+00	2.500000e+00	
727	1.513623e-04	4.995005e+00	2.243535e+00	2.500000e+00	
728	1.513687e-04	4.995005e+00	2.242331e+00	2.500000e+00	
729	1.513815e-04	4.995005e+00	2.239924e+00	2.500000e+00	
730	1.514071e-04	4.995005e+00	2.235111e+00	2.500000e+00	
731	1.514584e-04	4.995005e+00	2.225487e+00	2.500000e+00	
732	1.515351e-04	4.995005e+00	2.211098e+00	2.500000e+00	
733	1.516595e-04	4.995005e+00	2.187764e+00	2.500000e+00	
734	1.516861e-04	4.995005e+00	2.182772e+00	2.500000e+00	
735	1.517394e-04	4.995005e+00	2.172791e+00	2.500000e+00	
736	1.518459e-04	4.995005e+00	2.152840e+00	2.500000e+00	
737	1.520589e-04	4.995005e+00	2.112985e+00	2.500000e+00	
738	1.521122e-04	4.995005e+00	2.103032e+00	2.500000e+00	
739	1.522187e-04	4.995005e+00	2.083140e+00	2.500000e+00	
740	1.524317e-04	4.995005e+00	2.043411e+00	2.500000e+00	
741	1.524850e-04	4.995005e+00	2.033492e+00	2.500000e+00	
742	1.525915e-04	4.995005e+00	2.013668e+00	2.500000e+00	
743	1.528045e-04	4.995005e+00	1.974088e+00	2.500000e+00	
744	1.528578e-04	4.995005e+00	1.964207e+00	2.500000e+00	
745	1.529643e-04	4.995005e+00	1.944464e+00	2.500000e+00	
746	1.531774e-04	4.995005e+00	1.905053e+00	2.500000e+00	
747	1.532306e-04	4.995005e+00	1.895217e+00	2.500000e+00	
748	1.533371e-04	4.995005e+00	1.875564e+00	2.500000e+00	
749	1.535502e-04	4.995005e+00	1.836345e+00	2.500000e+00	
750	1.536034e-04	4.995005e+00	1.826558e+00	2.500000e+00	

Index   time            v(4)            v(3)            v(1)            
--------------------------------------------------------------------------------
751	1.537099e-04	4.995005e+00	1.807007e+00	2.500000e+00	
752	1.539230e-04	4.995005e+00	1.768000e+00	2.500000e+00	
753	1.539762e-04	4.995005e+00	1.758269e+00	2.500000e+00	
754	1.540828e-04	4.995005e+00	1.738831e+00	2.500000e+00	
755	1.542958e-04	4.995005e+00	1.700058e+00	2.500000e+00	
756	1.543491e-04	4.995005e+00	1.690387e+00	2.500000e+00	
757	1.544556e-04	4.995005e+00	1.671072e+00	2.500000e+00	
758	1.546686e-04	4.995005e+00	1.632554e+00	2.500000e+00	
759	1.547219e-04	4.995005e+00	1.622948e+00	2.500000e+00	
760	1.548284e-04	4.995005e+00	1.603767e+00	2.500000e+00	
761	1.550414e-04	4.995005e+00	1.565526e+00	2.500000e+00	
762	1.550947e-04	4.995005e+00	1.555992e+00	2.500000e+00	
763	1.552012e-04	4.995005e+00	1.536955e+00	2.500000e+00	
764	1.554142e-04	4.995005e+00	1.499011e+00	2.500000e+00	
765	1.554675e-04	4.995005e+00	1.489553e+00	2.500000e+00	
766	1.555740e-04	4.995005e+00	1.470671e+00	2.500000e+00	
767	1.557871e-04	4.995005e+00	1.433045e+00	2.500000e+00	
768	1.558403e-04	4.995005e+00	1.423668e+00	2.500000e+00	
769	1.559468e-04	4.995005e+00	1.404951e+00	2.500000e+00	
770	1.561599e-04	4.995005e+00	1.367665e+00	2.500000e+00	
771	1.562131e-04	4.995005e+00	1.358375e+00	2.500000e+00	
772	1.563196e-04	4.995005e+00	1.339833e+00	2.500000e+00	
773	1.565327e-04	4.995005e+00	1.302906e+00	2.500000e+00	
774	1.565859e-04	4.995005e+00	1.293707e+00	2.500000e+00	
775	1.566925e-04	4.995005e+00	1.275351e+00	2.500000e+00	
776	1.569055e-04	4.995005e+00	1.238803e+00	2.500000e+00	
777	1.569588e-04	4.995005e+00	1.229702e+00	2.500000e+00	
778	1.570653e-04	4.995005e+00	1.211541e+00	2.500000e+00	
779	1.572783e-04	4.995005e+00	1.175393e+00	2.500000e+00	
780	1.573316e-04	4.995005e+00	1.166393e+00	2.500000e+00	
781	1.574381e-04	4.995005e+00	1.148438e+00	2.500000e+00	
782	1.576511e-04	4.995005e+00	1.112710e+00	2.500000e+00	
783	1.577044e-04	4.995005e+00	1.103816e+00	2.500000e+00	
784	1.578109e-04	4.995005e+00	1.086076e+00	2.500000e+00	
785	1.580239e-04	4.995005e+00	1.050787e+00	2.500000e+00	
786	1.580772e-04	4.995005e+00	1.042005e+00	2.500000e+00	
787	1.581837e-04	4.995005e+00	1.024491e+00	2.500000e+00	
788	1.583967e-04	4.995005e+00	9.896601e-01	2.500000e+00	
789	1.584500e-04	4.995005e+00	9.809945e-01	2.500000e+00	
790	1.585565e-04	4.995005e+00	9.637145e-01	2.500000e+00	
791	1.587696e-04	4.995005e+00	9.293617e-01	2.500000e+00	
792	1.588228e-04	4.995005e+00	9.208172e-01	2.500000e+00	
793	1.589293e-04	4.995005e+00	9.037814e-01	2.500000e+00	
794	1.591424e-04	4.995005e+00	8.699250e-01	2.500000e+00	
795	1.591956e-04	4.995005e+00	8.615063e-01	2.500000e+00	
796	1.593022e-04	4.995005e+00	8.447241e-01	2.500000e+00	
797	1.595152e-04	4.995005e+00	8.113828e-01	2.500000e+00	
798	1.595684e-04	4.995005e+00	8.030945e-01	2.500000e+00	
799	1.596750e-04	4.995005e+00	7.865750e-01	2.500000e+00	
800	1.598880e-04	4.995005e+00	7.537670e-01	2.500000e+00	
801	1.599413e-04	4.995005e+00	7.456137e-01	2.500000e+00	
802	1.600478e-04	4.995005e+00	7.293660e-01	2.500000e+00	
803	1.602608e-04	4.995005e+00	6.971094e-01	2.500000e+00	
804	1.603141e-04	4.995005e+00	6.890955e-01	2.500000e+00	
805	1.604206e-04	4.995005e+00	6.731286e-01	2.500000e+00	
806	1.606336e-04	4.995005e+00	6.414410e-01	2.500000e+00	
807	1.606869e-04	4.995005e+00	6.335709e-01	2.500000e+00	
808	1.607934e-04	4.995005e+00	6.178935e-01	2.500000e+00	

Index   time            v(4)            v(3)            v(1)            
--------------------------------------------------------------------------------
809	1.610064e-04	4.995005e+00	5.867924e-01	2.500000e+00	
810	1.610597e-04	4.995005e+00	5.790704e-01	2.500000e+00	
811	1.611662e-04	4.995005e+00	5.636912e-01	2.500000e+00	
812	1.613793e-04	4.995005e+00	5.331935e-01	2.500000e+00	
813	1.614325e-04	4.995005e+00	5.256240e-01	2.500000e+00	
814	1.615390e-04	4.995005e+00	5.105512e-01	2.500000e+00	
815	1.617521e-04	4.995005e+00	4.806738e-01	2.500000e+00	
816	1.618053e-04	4.995005e+00	4.732608e-01	2.500000e+00	
817	1.619118e-04	4.995005e+00	4.585029e-01	2.500000e+00	
818	1.621249e-04	4.995005e+00	4.292621e-01	2.500000e+00	
819	1.621781e-04	4.995005e+00	4.220096e-01	2.500000e+00	
820	1.622847e-04	4.995005e+00	4.075747e-01	2.500000e+00	
821	1.624977e-04	4.995005e+00	3.789865e-01	2.500000e+00	
822	1.625510e-04	4.995005e+00	3.718987e-01	2.500000e+00	
823	1.626575e-04	4.995005e+00	3.577945e-01	2.500000e+00	
824	1.628705e-04	4.995005e+00	3.298747e-01	2.500000e+00	
825	1.629238e-04	4.995005e+00	3.229553e-01	2.500000e+00	
826	1.630303e-04	4.995005e+00	3.091898e-01	2.500000e+00	
827	1.632433e-04	4.995005e+00	2.819537e-01	2.500000e+00	
828	1.632966e-04	4.995005e+00	2.752065e-01	2.500000e+00	
829	1.634031e-04	4.995005e+00	2.617871e-01	2.500000e+00	
830	1.636161e-04	4.995005e+00	2.352496e-01	2.500000e+00	
831	1.636694e-04	4.995005e+00	2.286784e-01	2.500000e+00	
832	1.637759e-04	4.995005e+00	2.156125e-01	2.500000e+00	
833	1.639890e-04	4.995005e+00	1.897882e-01	2.500000e+00	
834	1.640422e-04	4.995005e+00	1.833966e-01	2.500000e+00	
835	1.641487e-04	4.995005e+00	1.706913e-01	2.500000e+00	
836	1.643618e-04	4.995005e+00	1.455943e-01	2.500000e+00	
837	1.644150e-04	4.995005e+00	1.393858e-01	2.500000e+00	
838	1.645215e-04	4.995005e+00	1.270482e-01	2.500000e+00	
839	1.647346e-04	4.995005e+00	1.026923e-01	2.500000e+00	
840	1.647878e-04	4.995005e+00	9.667029e-02	2.500000e+00	
841	1.648944e-04	4.995005e+00	8.470705e-02	2.500000e+00	
842	1.651074e-04	4.995005e+00	6.110567e-02	2.500000e+00	
843	1.651607e-04	4.995005e+00	5.527343e-02	2.500000e+00	
844	1.652672e-04	4.995005e+00	4.369116e-02	2.500000e+00	
845	1.654802e-04	4.995005e+00	2.085721e-02	2.500000e+00	
846	1.655335e-04	4.995005e+00	1.521796e-02	2.500000e+00	
847	1.656400e-04	4.995005e+00	4.023015e-03	2.500000e+00	
848	1.658530e-04	4.995005e+00	-1.80310e-02	2.500000e+00	
849	1.659063e-04	4.995005e+00	-2.34741e-02	2.500000e+00	
850	1.660128e-04	4.995005e+00	-3.42756e-02	2.500000e+00	
851	1.662258e-04	4.995005e+00	-5.55376e-02	2.500000e+00	
852	1.662791e-04	4.995005e+00	-6.07817e-02	2.500000e+00	
853	1.663856e-04	4.995005e+00	-7.11837e-02	2.500000e+00	
854	1.665986e-04	4.995005e+00	-9.16420e-02	2.500000e+00	
855	1.670247e-04	4.995005e+00	-1.31162e-01	2.500000e+00	
856	1.670872e-04	4.995005e+00	-1.36801e-01	2.500000e+00	
857	1.672122e-04	4.995005e+00	-1.47957e-01	2.500000e+00	
858	1.674622e-04	4.995005e+00	-1.69779e-01	2.500000e+00	
859	1.675247e-04	4.995005e+00	-1.75132e-01	2.500000e+00	
860	1.676497e-04	4.995005e+00	-1.85714e-01	2.500000e+00	
861	1.678997e-04	4.995005e+00	-2.06379e-01	2.500000e+00	
862	1.683997e-04	4.995005e+00	-2.45702e-01	2.500000e+00	
863	1.688997e-04	4.995005e+00	-2.82316e-01	2.500000e+00	
864	1.693997e-04	4.995005e+00	-3.16183e-01	2.500000e+00	
865	1.698997e-04	4.995005e+00	-3.47272e-01	2.500000e+00	
866	1.703997e-04	4.995005e+00	-3.75550e-01	2.500000e+00	

Index   time            v(4)            v(3)            v(1)            
--------------------------------------------------------------------------------
867	1.708997e-04	4.995005e+00	-4.00991e-01	2.500000e+00	
868	1.713997e-04	4.995005e+00	-4.23569e-01	2.500000e+00	
869	1.718997e-04	4.995005e+00	-4.43261e-01	2.500000e+00	
870	1.723997e-04	4.995005e+00	-4.60049e-01	2.500000e+00	
871	1.728997e-04	4.995005e+00	-4.73916e-01	2.500000e+00	
872	1.733997e-04	4.995005e+00	-4.84848e-01	2.500000e+00	
873	1.738997e-04	4.995005e+00	-4.92834e-01	2.500000e+00	
874	1.743997e-04	4.995005e+00	-4.97866e-01	2.500000e+00	
875	1.748997e-04	4.995005e+00	-4.99940e-01	2.500000e+00	
876	1.753997e-04	4.995005e+00	-4.99054e-01	2.500000e+00	
877	1.758997e-04	4.995005e+00	-4.95208e-01	2.500000e+00	
878	1.763997e-04	4.995005e+00	-4.88405e-01	2.500000e+00	
879	1.768997e-04	4.995005e+00	-4.78654e-01	2.500000e+00	
880	1.773997e-04	4.995005e+00	-4.65963e-01	2.500000e+00	
881	1.778997e-04	4.995005e+00	-4.50345e-01	2.500000e+00	
882	1.783997e-04	4.995005e+00	-4.31816e-01	2.500000e+00	
883	1.788997e-04	4.995005e+00	-4.10393e-01	2.500000e+00	
884	1.793997e-04	4.995005e+00	-3.86097e-01	2.500000e+00	
885	1.798997e-04	4.995005e+00	-3.58954e-01	2.500000e+00	
886	1.803997e-04	4.995005e+00	-3.28989e-01	2.500000e+00	
887	1.808997e-04	4.995005e+00	-2.96232e-01	2.500000e+00	
888	1.813997e-04	4.995005e+00	-2.60716e-01	2.500000e+00	
889	1.818997e-04	4.995005e+00	-2.22475e-01	2.500000e+00	
890	1.823997e-04	4.995005e+00	-1.81548e-01	2.500000e+00	
891	1.824622e-04	4.995005e+00	-1.76245e-01	2.500000e+00	
892	1.825872e-04	4.995005e+00	-1.65515e-01	2.500000e+00	
893	1.828372e-04	4.995005e+00	-1.43564e-01	2.500000e+00	
894	1.828997e-04	4.995005e+00	-1.37974e-01	2.500000e+00	
895	1.830247e-04	4.995005e+00	-1.26672e-01	2.500000e+00	
896	1.832747e-04	4.995005e+00	-1.03583e-01	2.500000e+00	
897	1.833372e-04	4.995005e+00	-9.77097e-02	2.500000e+00	
898	1.834622e-04	4.995005e+00	-8.58437e-02	2.500000e+00	
899	1.837122e-04	4.995005e+00	-6.16340e-02	2.500000e+00	
900	1.837747e-04	4.995005e+00	-5.54826e-02	2.500000e+00	
901	1.838997e-04	4.995005e+00	-4.30617e-02	2.500000e+00	
902	1.841497e-04	4.995005e+00	-1.77499e-02	2.500000e+00	
903	1.842122e-04	4.995005e+00	-1.13247e-02	2.500000e+00	
904	1.843372e-04	4.995005e+00	1.641933e-03	2.500000e+00	
905	1.845872e-04	4.995005e+00	2.803663e-02	2.500000e+00	
906	1.846497e-04	4.995005e+00	3.473086e-02	2.500000e+00	
907	1.847747e-04	4.995005e+00	4.823327e-02	2.500000e+00	
908	1.850247e-04	4.995005e+00	7.569096e-02	2.500000e+00	
909	1.850872e-04	4.995005e+00	8.264911e-02	2.500000e+00	
910	1.852122e-04	4.995005e+00	9.667715e-02	2.500000e+00	
911	1.854622e-04	4.995005e+00	1.251771e-01	2.500000e+00	
912	1.855247e-04	4.995005e+00	1.323939e-01	2.500000e+00	
913	1.856497e-04	4.995005e+00	1.469370e-01	2.500000e+00	
914	1.858997e-04	4.995005e+00	1.764576e-01	2.500000e+00	
915	1.859622e-04	4.995005e+00	1.839276e-01	2.500000e+00	
916	1.860872e-04	4.995005e+00	1.989747e-01	2.500000e+00	
917	1.863372e-04	4.995005e+00	2.294938e-01	2.500000e+00	
918	1.863997e-04	4.995005e+00	2.372114e-01	2.500000e+00	
919	1.865247e-04	4.995005e+00	2.527511e-01	2.500000e+00	
920	1.867747e-04	4.995005e+00	2.842456e-01	2.500000e+00	
921	1.868372e-04	4.995005e+00	2.922049e-01	2.500000e+00	
922	1.869622e-04	4.995005e+00	3.082256e-01	2.500000e+00	
923	1.872122e-04	4.995005e+00	3.406715e-01	2.500000e+00	
924	1.872747e-04	4.995005e+00	3.488666e-01	2.500000e+00	

Index   time            v(4)            v(3)            v(1)            
--------------------------------------------------------------------------------
925	1.873997e-04	4.995005e+00	3.653561e-01	2.500000e+00	
926	1.876497e-04	4.995005e+00	3.987291e-01	2.500000e+00	
927	1.877122e-04	4.995005e+00	4.071537e-01	2.500000e+00	
928	1.878372e-04	4.995005e+00	4.240995e-01	2.500000e+00	
929	1.880872e-04	4.995005e+00	4.583743e-01	2.500000e+00	
930	1.881497e-04	4.995005e+00	4.670221e-01	2.500000e+00	
931	1.882747e-04	4.995005e+00	4.844115e-01	2.500000e+00	
932	1.885247e-04	4.995005e+00	5.195622e-01	2.500000e+00	
933	1.885872e-04	4.995005e+00	5.284266e-01	2.500000e+00	
934	1.887122e-04	4.995005e+00	5.462464e-01	2.500000e+00	
935	1.889622e-04	4.995005e+00	5.822465e-01	2.500000e+00	
936	1.890247e-04	4.995005e+00	5.913208e-01	2.500000e+00	
937	1.891497e-04	4.995005e+00	6.095576e-01	2.500000e+00	
938	1.893997e-04	4.995005e+00	6.463799e-01	2.500000e+00	
939	1.894622e-04	4.995005e+00	6.556573e-01	2.500000e+00	
940	1.895872e-04	4.995005e+00	6.742972e-01	2.500000e+00	
941	1.898372e-04	4.995005e+00	7.119138e-01	2.500000e+00	
942	1.898997e-04	4.995005e+00	7.213873e-01	2.500000e+00	
943	1.900247e-04	4.995005e+00	7.404163e-01	2.500000e+00	
944	1.902747e-04	4.995005e+00	7.787988e-01	2.500000e+00	
945	1.903372e-04	4.995005e+00	7.884612e-01	2.500000e+00	
946	1.904622e-04	4.995005e+00	8.078649e-01	2.500000e+00	
947	1.907122e-04	4.995005e+00	8.469843e-01	2.500000e+00	
948	1.907747e-04	4.995005e+00	8.568283e-01	2.500000e+00	
949	1.908997e-04	4.995005e+00	8.765921e-01	2.500000e+00	
950	1.911497e-04	4.995005e+00	9.164189e-01	2.500000e+00	
951	1.912122e-04	4.995005e+00	9.264370e-01	2.500000e+00	
952	1.913372e-04	4.995005e+00	9.465459e-01	2.500000e+00	
953	1.915872e-04	4.995005e+00	9.870500e-01	2.500000e+00	
954	1.916497e-04	4.995005e+00	9.972347e-01	2.500000e+00	
955	1.917747e-04	4.995005e+00	1.017674e+00	2.500000e+00	
956	1.920247e-04	4.995005e+00	1.058824e+00	2.500000e+00	
957	1.920872e-04	4.995005e+00	1.069168e+00	2.500000e+00	
958	1.922122e-04	4.995005e+00	1.089921e+00	2.500000e+00	
959	1.924622e-04	4.995005e+00	1.131687e+00	2.500000e+00	
960	1.925247e-04	4.995005e+00	1.142182e+00	2.500000e+00	
961	1.926497e-04	4.995005e+00	1.163234e+00	2.500000e+00	
962	1.926810e-04	4.995005e+00	1.168510e+00	2.500000e+00	
963	1.927435e-04	4.995005e+00	1.179077e+00	2.500000e+00	
964	1.928685e-04	4.995005e+00	1.200273e+00	2.500000e+00	
965	1.928997e-04	4.995005e+00	1.205585e+00	2.500000e+00	
966	1.929622e-04	4.995005e+00	1.216222e+00	2.500000e+00	
967	1.930872e-04	4.995005e+00	1.237557e+00	2.500000e+00	
968	1.931185e-04	4.995005e+00	1.242903e+00	2.500000e+00	
969	1.931810e-04	4.995005e+00	1.253610e+00	2.500000e+00	
970	1.933060e-04	4.995005e+00	1.275080e+00	2.500000e+00	
971	1.933372e-04	4.995005e+00	1.280460e+00	2.500000e+00	
972	1.933997e-04	4.995005e+00	1.291233e+00	2.500000e+00	
973	1.935247e-04	4.995005e+00	1.312834e+00	2.500000e+00	
974	1.935560e-04	4.995005e+00	1.318246e+00	2.500000e+00	
975	1.936185e-04	4.995005e+00	1.329084e+00	2.500000e+00	
976	1.937435e-04	4.995005e+00	1.350813e+00	2.500000e+00	
977	1.937747e-04	4.995005e+00	1.356256e+00	2.500000e+00	
978	1.938372e-04	4.995005e+00	1.367156e+00	2.500000e+00	
979	1.939622e-04	4.995005e+00	1.389008e+00	2.500000e+00	
980	1.939935e-04	4.995005e+00	1.394482e+00	2.500000e+00	
981	1.940560e-04	4.995005e+00	1.405443e+00	2.500000e+00	
982	1.941810e-04	4.995005e+00	1.427414e+00	2.500000e+00	

Index   time            v(4)            v(3)            v(1)            
--------------------------------------------------------------------------------
983	1.942122e-04	4.995005e+00	1.432917e+00	2.500000e+00	
984	1.942747e-04	4.995005e+00	1.443936e+00	2.500000e+00	
985	1.943997e-04	4.995005e+00	1.466022e+00	2.500000e+00	
986	1.944310e-04	4.995005e+00	1.471554e+00	2.500000e+00	
987	1.944935e-04	4.995005e+00	1.482628e+00	2.500000e+00	
988	1.946185e-04	4.995005e+00	1.504825e+00	2.500000e+00	
989	1.946497e-04	4.995005e+00	1.510384e+00	2.500000e+00	
990	1.947122e-04	4.995005e+00	1.521513e+00	2.500000e+00	
991	1.948372e-04	4.995005e+00	1.543817e+00	2.500000e+00	
992	1.948685e-04	4.995005e+00	1.549402e+00	2.500000e+00	
993	1.949310e-04	4.995005e+00	1.560583e+00	2.500000e+00	
994	1.950560e-04	4.995005e+00	1.582989e+00	2.500000e+00	
995	1.950872e-04	4.995005e+00	1.588599e+00	2.500000e+00	
996	1.951497e-04	4.995005e+00	1.599830e+00	2.500000e+00	
997	1.952747e-04	4.995005e+00	1.622334e+00	2.500000e+00	
998	1.953060e-04	4.995005e+00	1.627968e+00	2.500000e+00	
999	1.953685e-04	4.995005e+00	1.639247e+00	2.500000e+00	
1000	1.954935e-04	4.995005e+00	1.661845e+00	2.500000e+00	
1001	1.955247e-04	4.995005e+00	1.667503e+00	2.500000e+00	
1002	1.955872e-04	4.995005e+00	1.678827e+00	2.500000e+00	
1003	1.957122e-04	4.995005e+00	1.701514e+00	2.500000e+00	
1004	1.957435e-04	4.995005e+00	1.707194e+00	2.500000e+00	
1005	1.958060e-04	4.995005e+00	1.718562e+00	2.500000e+00	
1006	1.959310e-04	4.995005e+00	1.741335e+00	2.500000e+00	
1007	1.959622e-04	4.995005e+00	1.747035e+00	2.500000e+00	
1008	1.960247e-04	4.995005e+00	1.758445e+00	2.500000e+00	
1009	1.961497e-04	4.995005e+00	1.781298e+00	2.500000e+00	
1010	1.961810e-04	4.995005e+00	1.787018e+00	2.500000e+00	
1011	1.962435e-04	4.995005e+00	1.798467e+00	2.500000e+00	
1012	1.963685e-04	4.995005e+00	1.821397e+00	2.500000e+00	
1013	1.963997e-04	4.995005e+00	1.827137e+00	2.500000e+00	
1014	1.964622e-04	4.995005e+00	1.838623e+00	2.500000e+00	
1015	1.965872e-04	4.995005e+00	1.861625e+00	2.500000e+00	
1016	1.966185e-04	4.995005e+00	1.867382e+00	2.500000e+00	
1017	1.966810e-04	4.995005e+00	1.878903e+00	2.500000e+00	
1018	1.968060e-04	4.995005e+00	1.901973e+00	2.500000e+00	
1019	1.968372e-04	4.995005e+00	1.907746e+00	2.500000e+00	
1020	1.968997e-04	4.995005e+00	1.919300e+00	2.500000e+00	
1021	1.970247e-04	4.995005e+00	1.942434e+00	2.500000e+00	
1022	1.970560e-04	4.995005e+00	1.948223e+00	2.500000e+00	
1023	1.971185e-04	4.995005e+00	1.959807e+00	2.500000e+00	
1024	1.972435e-04	4.995005e+00	1.983000e+00	2.500000e+00	
1025	1.972747e-04	4.995005e+00	1.988804e+00	2.500000e+00	
1026	1.973372e-04	4.995005e+00	2.000416e+00	2.500000e+00	
1027	1.974622e-04	4.995005e+00	2.023665e+00	2.500000e+00	
1028	1.974935e-04	4.995005e+00	2.029481e+00	2.500000e+00	
1029	1.975560e-04	4.995005e+00	2.041120e+00	2.500000e+00	
1030	1.976810e-04	4.995005e+00	2.064419e+00	2.500000e+00	
1031	1.977122e-04	4.995005e+00	2.070247e+00	2.500000e+00	
1032	1.977747e-04	4.995005e+00	2.081910e+00	2.500000e+00	
1033	1.978997e-04	4.995005e+00	2.105255e+00	2.500000e+00	
1034	1.979310e-04	4.995005e+00	2.111095e+00	2.500000e+00	
1035	1.979935e-04	4.995005e+00	2.122779e+00	2.500000e+00	
1036	1.981185e-04	4.995005e+00	2.146166e+00	2.500000e+00	
1037	1.981497e-04	4.995005e+00	2.152016e+00	2.500000e+00	
1038	1.982122e-04	4.995005e+00	2.163720e+00	2.500000e+00	
1039	1.983372e-04	4.995005e+00	2.187144e+00	2.500000e+00	
1040	1.983685e-04	4.995005e+00	2.193002e+00	2.500000e+00	

Index   time            v(4)            v(3)            v(1)            
--------------------------------------------------------------------------------
1041	1.984310e-04	4.995005e+00	2.204724e+00	2.500000e+00	
1042	1.985560e-04	4.995005e+00	2.228180e+00	2.500000e+00	
1043	1.985872e-04	4.995005e+00	2.234047e+00	2.500000e+00	
1044	1.986497e-04	4.995005e+00	2.245784e+00	2.500000e+00	
1045	1.987747e-04	4.995005e+00	2.269269e+00	2.500000e+00	
1046	1.988060e-04	4.995005e+00	2.275142e+00	2.500000e+00	
1047	1.988685e-04	4.995005e+00	2.286892e+00	2.500000e+00	
1048	1.989935e-04	4.995005e+00	2.310400e+00	2.500000e+00	
1049	1.990247e-04	4.995005e+00	2.316279e+00	2.500000e+00	
1050	1.990872e-04	4.995005e+00	2.328040e+00	2.500000e+00	
1051	1.992122e-04	4.995005e+00	2.351568e+00	2.500000e+00	
1052	1.992435e-04	4.995005e+00	2.357451e+00	2.500000e+00	
1053	1.993060e-04	4.995005e+00	2.369220e+00	2.500000e+00	
1054	1.994310e-04	4.995005e+00	2.392764e+00	2.500000e+00	
1055	1.996810e-04	4.995005e+00	2.439869e+00	2.500000e+00	
1056	1.997655e-04	4.995005e+00	2.455792e+00	2.500000e+00	
1057	1.999138e-04	4.995005e+00	2.483758e+00	2.500000e+00	
1058	1.999548e-04	4.995005e+00	2.491475e+00	2.500000e+00	
1059	2.000265e-04	4.995005e+00	2.504989e+00	2.500000e+00	
1060	2.000463e-04	4.995005e+00	2.508728e+00	2.500000e+00	
1061	2.000810e-04	4.995005e+00	2.515269e+00	2.500000e+00	
1062	2.000906e-04	4.995005e+00	2.517082e+00	2.500000e+00	
1063	2.001074e-04	4.995005e+00	2.520246e+00	2.500000e+00	
1064	2.001121e-04	4.995005e+00	2.521127e+00	2.500000e+00	
1065	2.001202e-04	4.995005e+00	2.522658e+00	2.500000e+00	
1066	2.001232e-04	4.995005e+00	2.523216e+00	2.500000e+00	
1067	2.001255e-04	4.995005e+00	2.523664e+00	2.500000e+00	
1068	2.001270e-04	4.995005e+00	2.523943e+00	2.500000e+00	
1069	2.001287e-04	4.995005e+00	2.524266e+00	2.500000e+00	
1070	2.001294e-04	4.995005e+00	2.524391e+00	2.500000e+00	
1071	2.001306e-04	4.995005e+00	2.524609e+00	2.500000e+00	
1072	2.001309e-04	4.995005e+00	2.524669e+00	2.500000e+00	
1073	2.001314e-04	4.995005e+00	2.524775e+00	2.500000e+00	
1074	2.001316e-04	4.995005e+00	2.524804e+00	2.500000e+00	
1075	2.001319e-04	4.995005e+00	2.524856e+00	2.500000e+00	
1076	2.001319e-04	4.995005e+00	2.524870e+00	2.500000e+00	
1077	2.001321e-04	4.995005e+00	2.524895e+00	2.500000e+00	
1078	2.001321e-04	4.995005e+00	2.524902e+00	2.500000e+00	
1079	2.001322e-04	4.995005e+00	2.524914e+00	2.500000e+00	
1080	2.001322e-04	4.995005e+00	2.524917e+00	2.500000e+00	
1081	2.001322e-04	4.995005e+00	2.524923e+00	2.500000e+00	
1082	2.001323e-04	1.867995e-02	2.524929e+00	2.500000e+00	
1083	2.001323e-04	1.867995e-02	2.524942e+00	2.500000e+00	
1084	2.001325e-04	1.867995e-02	2.524968e+00	2.500000e+00	
1085	2.001327e-04	1.867995e-02	2.525019e+00	2.500000e+00	
1086	2.001333e-04	1.867995e-02	2.525123e+00	2.500000e+00	
1087	2.001344e-04	1.867995e-02	2.525329e+00	2.500000e+00	
1088	2.001366e-04	1.867995e-02	2.525742e+00	2.500000e+00	
1089	2.001409e-04	1.867995e-02	2.526567e+00	2.500000e+00	
1090	2.001497e-04	1.867995e-02	2.528218e+00	2.500000e+00	
1091	2.001672e-04	1.867995e-02	2.531520e+00	2.500000e+00	
1092	2.001871e-04	1.867995e-02	2.535259e+00	2.500000e+00	
1093	2.002064e-04	1.867995e-02	2.538906e+00	2.500000e+00	
1094	2.002179e-04	1.867995e-02	2.541080e+00	2.500000e+00	
1095	2.002293e-04	1.867995e-02	2.543213e+00	2.500000e+00	
1096	2.002437e-04	1.867995e-02	2.545932e+00	2.500000e+00	
1097	2.002725e-04	1.867995e-02	2.551370e+00	2.500000e+00	
1098	2.003302e-04	1.867995e-02	2.562246e+00	2.500000e+00	

Index   time            v(4)            v(3)            v(1)            
--------------------------------------------------------------------------------
1099	2.004457e-04	1.867995e-02	2.583995e+00	2.500000e+00	
1100	2.006765e-04	1.867995e-02	2.627479e+00	2.500000e+00	
1101	2.011382e-04	1.867995e-02	2.714358e+00	2.500000e+00	
1102	2.016382e-04	1.867995e-02	2.808244e+00	2.500000e+00	
1103	2.021382e-04	1.867995e-02	2.901825e+00	2.500000e+00	
1104	2.026382e-04	1.867995e-02	2.995010e+00	2.500000e+00	
1105	2.031382e-04	1.867995e-02	3.087706e+00	2.500000e+00	
1106	2.036382e-04	1.867995e-02	3.179823e+00	2.500000e+00	
1107	2.041382e-04	1.867995e-02	3.271268e+00	2.500000e+00	
1108	2.046382e-04	1.867995e-02	3.361952e+00	2.500000e+00	
1109	2.051382e-04	1.867995e-02	3.451786e+00	2.500000e+00	
1110	2.056382e-04	1.867995e-02	3.540681e+00	2.500000e+00	
1111	2.061382e-04	1.867995e-02	3.628548e+00	2.500000e+00	
1112	2.066382e-04	1.867995e-02	3.715301e+00	2.500000e+00	
1113	2.071382e-04	1.867995e-02	3.800856e+00	2.500000e+00	
1114	2.076382e-04	1.867995e-02	3.885126e+00	2.500000e+00	
1115	2.081382e-04	1.867995e-02	3.968030e+00	2.500000e+00	
1116	2.086382e-04	1.867995e-02	4.049485e+00	2.500000e+00	
1117	2.091382e-04	1.867995e-02	4.129410e+00	2.500000e+00	
1118	2.096382e-04	1.867995e-02	4.207728e+00	2.500000e+00	
1119	2.101382e-04	1.867995e-02	4.284360e+00	2.500000e+00	
1120	2.106382e-04	1.867995e-02	4.359231e+00	2.500000e+00	
1121	2.111382e-04	1.867995e-02	4.432268e+00	2.500000e+00	
1122	2.116382e-04	1.867995e-02	4.503397e+00	2.500000e+00	
1123	2.121382e-04	1.867995e-02	4.572550e+00	2.500000e+00	
1124	2.126382e-04	1.867995e-02	4.639657e+00	2.500000e+00	
1125	2.131382e-04	1.867995e-02	4.704652e+00	2.500000e+00	
1126	2.136382e-04	1.867995e-02	4.767472e+00	2.500000e+00	
1127	2.141382e-04	1.867995e-02	4.828054e+00	2.500000e+00	
1128	2.146382e-04	1.867995e-02	4.886339e+00	2.500000e+00	
1129	2.151382e-04	1.867995e-02	4.942268e+00	2.500000e+00	
1130	2.156382e-04	1.867995e-02	4.995788e+00	2.500000e+00	
1131	2.161382e-04	1.867995e-02	5.046844e+00	2.500000e+00	
1132	2.166382e-04	1.867995e-02	5.095387e+00	2.500000e+00	
1133	2.171382e-04	1.867995e-02	5.141368e+00	2.500000e+00	
1134	2.176382e-04	1.867995e-02	5.184743e+00	2.500000e+00	
1135	2.181382e-04	1.867995e-02	5.225468e+00	2.500000e+00	
1136	2.186382e-04	1.867995e-02	5.263504e+00	2.500000e+00	
1137	2.191382e-04	1.867995e-02	5.298812e+00	2.500000e+00	
1138	2.196382e-04	1.867995e-02	5.331358e+00	2.500000e+00	
1139	2.201382e-04	1.867995e-02	5.361110e+00	2.500000e+00	
1140	2.206382e-04	1.867995e-02	5.388039e+00	2.500000e+00	
1141	2.211382e-04	1.867995e-02	5.412117e+00	2.500000e+00	
1142	2.216382e-04	1.867995e-02	5.433321e+00	2.500000e+00	
1143	2.221382e-04	1.867995e-02	5.451631e+00	2.500000e+00	
1144	2.226382e-04	1.867995e-02	5.467028e+00	2.500000e+00	
1145	2.231382e-04	1.867995e-02	5.479496e+00	2.500000e+00	
1146	2.236382e-04	1.867995e-02	5.489024e+00	2.500000e+00	
1147	2.241382e-04	1.867995e-02	5.495603e+00	2.500000e+00	
1148	2.246382e-04	1.867995e-02	5.499225e+00	2.500000e+00	
1149	2.251382e-04	1.867995e-02	5.499887e+00	2.500000e+00	
1150	2.256382e-04	1.867995e-02	5.497589e+00	2.500000e+00	
1151	2.261382e-04	1.867995e-02	5.492332e+00	2.500000e+00	
1152	2.266382e-04	1.867995e-02	5.484122e+00	2.500000e+00	
1153	2.271382e-04	1.867995e-02	5.472968e+00	2.500000e+00	
1154	2.276382e-04	1.867995e-02	5.458879e+00	2.500000e+00	
1155	2.281382e-04	1.867995e-02	5.441870e+00	2.500000e+00	
1156	2.286382e-04	1.867995e-02	5.421958e+00	2.500000e+00	

Index   time            v(4)            v(3)            v(1)            
--------------------------------------------------------------------------------
1157	2.291382e-04	1.867995e-02	5.399163e+00	2.500000e+00	
1158	2.296382e-04	1.867995e-02	5.373506e+00	2.500000e+00	
1159	2.301382e-04	1.867995e-02	5.345014e+00	2.500000e+00	
1160	2.306382e-04	1.867995e-02	5.313714e+00	2.500000e+00	
1161	2.311382e-04	1.867995e-02	5.279637e+00	2.500000e+00	
1162	2.316382e-04	1.867995e-02	5.242816e+00	2.500000e+00	
1163	2.321382e-04	1.867995e-02	5.203290e+00	2.500000e+00	
1164	2.326382e-04	1.867995e-02	5.161095e+00	2.500000e+00	
1165	2.331382e-04	1.867995e-02	5.116274e+00	2.500000e+00	
1166	2.336382e-04	1.867995e-02	5.068871e+00	2.500000e+00	
1167	2.341382e-04	1.867995e-02	5.018933e+00	2.500000e+00	
1168	2.346382e-04	1.867995e-02	4.966509e+00	2.500000e+00	
1169	2.351382e-04	1.867995e-02	4.911651e+00	2.500000e+00	
1170	2.356382e-04	1.867995e-02	4.854413e+00	2.500000e+00	
1171	2.361382e-04	1.867995e-02	4.794851e+00	2.500000e+00	
1172	2.366382e-04	1.867995e-02	4.733025e+00	2.500000e+00	
1173	2.371382e-04	1.867995e-02	4.668995e+00	2.500000e+00	
1174	2.376382e-04	1.867995e-02	4.602824e+00	2.500000e+00	
1175	2.381382e-04	1.867995e-02	4.534578e+00	2.500000e+00	
1176	2.386382e-04	1.867995e-02	4.464324e+00	2.500000e+00	
1177	2.391382e-04	1.867995e-02	4.392132e+00	2.500000e+00	
1178	2.396382e-04	1.867995e-02	4.318072e+00	2.500000e+00	
1179	2.401382e-04	1.867995e-02	4.242219e+00	2.500000e+00	
1180	2.406382e-04	1.867995e-02	4.164645e+00	2.500000e+00	
1181	2.411382e-04	1.867995e-02	4.085429e+00	2.500000e+00	
1182	2.416382e-04	1.867995e-02	4.004649e+00	2.500000e+00	
1183	2.421382e-04	1.867995e-02	3.922383e+00	2.500000e+00	
1184	2.426382e-04	1.867995e-02	3.838714e+00	2.500000e+00	
1185	2.431382e-04	1.867995e-02	3.753724e+00	2.500000e+00	
1186	2.436382e-04	1.867995e-02	3.667496e+00	2.500000e+00	
1187	2.441382e-04	1.867995e-02	3.580116e+00	2.500000e+00	
1188	2.446382e-04	1.867995e-02	3.491670e+00	2.500000e+00	
1189	2.451382e-04	1.867995e-02	3.402246e+00	2.500000e+00	
1190	2.456382e-04	1.867995e-02	3.311931e+00	2.500000e+00	
1191	2.461382e-04	1.867995e-02	3.220815e+00	2.500000e+00	
1192	2.466382e-04	1.867995e-02	3.128988e+00	2.500000e+00	
1193	2.471382e-04	1.867995e-02	3.036539e+00	2.500000e+00	
1194	2.476382e-04	1.867995e-02	2.943562e+00	2.500000e+00	
1195	2.481382e-04	1.867995e-02	2.850146e+00	2.500000e+00	
1196	2.486382e-04	1.867995e-02	2.756385e+00	2.500000e+00	
1197	2.491382e-04	1.867995e-02	2.662371e+00	2.500000e+00	
1198	2.496382e-04	1.867995e-02	2.568197e+00	2.500000e+00	
1199	2.501382e-04	1.867995e-02	2.473955e+00	2.500000e+00	
1200	2.506382e-04	1.867995e-02	2.379739e+00	2.500000e+00	
1201	2.507593e-04	1.867995e-02	2.356929e+00	2.500000e+00	
1202	2.509732e-04	1.867995e-02	2.316680e+00	2.500000e+00	
1203	2.510319e-04	1.867995e-02	2.305631e+00	2.500000e+00	
1204	2.511348e-04	1.867995e-02	2.286270e+00	2.500000e+00	
1205	2.511633e-04	1.867995e-02	2.280920e+00	2.500000e+00	
1206	2.512131e-04	1.867995e-02	2.271557e+00	2.500000e+00	
1207	2.512269e-04	1.867995e-02	2.268967e+00	2.500000e+00	
1208	2.512510e-04	1.867995e-02	2.264434e+00	2.500000e+00	
1209	2.512577e-04	1.867995e-02	2.263179e+00	2.500000e+00	
1210	2.512694e-04	1.867995e-02	2.260984e+00	2.500000e+00	
1211	2.512726e-04	1.867995e-02	2.260377e+00	2.500000e+00	
1212	2.512783e-04	1.867995e-02	2.259313e+00	2.500000e+00	
1213	2.512798e-04	1.867995e-02	2.259019e+00	2.500000e+00	
1214	2.512826e-04	1.867995e-02	2.258504e+00	2.500000e+00	

Index   time            v(4)            v(3)            v(1)            
--------------------------------------------------------------------------------
1215	2.512833e-04	1.867995e-02	2.258361e+00	2.500000e+00	
1216	2.512847e-04	1.867995e-02	2.258112e+00	2.500000e+00	
1217	2.512850e-04	1.867995e-02	2.258043e+00	2.500000e+00	
1218	2.512857e-04	1.867995e-02	2.257922e+00	2.500000e+00	
1219	2.512859e-04	1.867995e-02	2.257882e+00	2.500000e+00	
1220	2.512861e-04	1.867995e-02	2.257837e+00	2.500000e+00	
1221	2.512863e-04	1.867995e-02	2.257806e+00	2.500000e+00	
1222	2.512864e-04	1.867995e-02	2.257785e+00	2.500000e+00	
1223	2.512864e-04	1.867995e-02	2.257774e+00	2.500000e+00	
1224	2.512865e-04	1.867995e-02	2.257767e+00	2.500000e+00	
1225	2.512865e-04	1.867995e-02	2.257759e+00	2.500000e+00	
1226	2.512866e-04	1.867995e-02	2.257754e+00	2.500000e+00	
1227	2.512866e-04	1.867995e-02	2.257752e+00	2.500000e+00	
1228	2.512866e-04	1.867995e-02	2.257748e+00	2.500000e+00	
1229	2.512866e-04	1.867995e-02	2.257747e+00	2.500000e+00	
1230	2.512866e-04	1.867995e-02	2.257746e+00	2.500000e+00	
1231	2.512866e-04	1.867995e-02	2.257745e+00	2.500000e+00	
1232	2.512866e-04	1.867995e-02	2.257744e+00	2.500000e+00	
1233	2.512866e-04	4.995005e+00	2.257744e+00	2.500000e+00	
1234	2.512866e-04	4.995005e+00	2.257742e+00	2.500000e+00	
1235	2.512866e-04	4.995005e+00	2.257738e+00	2.500000e+00	
1236	2.512867e-04	4.995005e+00	2.257731e+00	2.500000e+00	
1237	2.512868e-04	4.995005e+00	2.257717e+00	2.500000e+00	
1238	2.512869e-04	4.995005e+00	2.257688e+00	2.500000e+00	
1239	2.512871e-04	4.995005e+00	2.257658e+00	2.500000e+00	
1240	2.512873e-04	4.995005e+00	2.257617e+00	2.500000e+00	
1241	2.512876e-04	4.995005e+00	2.257551e+00	2.500000e+00	
1242	2.512883e-04	4.995005e+00	2.257428e+00	2.500000e+00	
1243	2.512896e-04	4.995005e+00	2.257181e+00	2.500000e+00	
1244	2.512920e-04	4.995005e+00	2.256738e+00	2.500000e+00	
1245	2.512967e-04	4.995005e+00	2.255851e+00	2.500000e+00	
1246	2.513035e-04	4.995005e+00	2.254572e+00	2.500000e+00	
1247	2.513125e-04	4.995005e+00	2.252885e+00	2.500000e+00	
1248	2.513304e-04	4.995005e+00	2.249512e+00	2.500000e+00	
1249	2.513483e-04	4.995005e+00	2.246150e+00	2.500000e+00	
1250	2.513648e-04	4.995005e+00	2.243058e+00	2.500000e+00	
1251	2.513773e-04	4.995005e+00	2.240709e+00	2.500000e+00	
1252	2.513893e-04	4.995005e+00	2.238463e+00	2.500000e+00	
1253	2.513922e-04	4.995005e+00	2.237916e+00	2.500000e+00	
1254	2.513980e-04	4.995005e+00	2.236823e+00	2.500000e+00	
1255	2.514096e-04	4.995005e+00	2.234638e+00	2.500000e+00	
1256	2.514329e-04	4.995005e+00	2.230267e+00	2.500000e+00	
1257	2.514733e-04	4.995005e+00	2.222682e+00	2.500000e+00	
1258	2.515211e-04	4.995005e+00	2.213712e+00	2.500000e+00	
1259	2.515998e-04	4.995005e+00	2.198946e+00	2.500000e+00	
1260	2.517412e-04	4.995005e+00	2.172443e+00	2.500000e+00	
1261	2.517766e-04	4.995005e+00	2.165821e+00	2.500000e+00	
1262	2.518473e-04	4.995005e+00	2.152582e+00	2.500000e+00	
1263	2.519886e-04	4.995005e+00	2.126125e+00	2.500000e+00	
1264	2.520240e-04	4.995005e+00	2.119515e+00	2.500000e+00	
1265	2.520947e-04	4.995005e+00	2.106301e+00	2.500000e+00	
1266	2.522361e-04	4.995005e+00	2.079898e+00	2.500000e+00	
1267	2.522714e-04	4.995005e+00	2.073302e+00	2.500000e+00	
1268	2.523421e-04	4.995005e+00	2.060116e+00	2.500000e+00	
1269	2.524835e-04	4.995005e+00	2.033772e+00	2.500000e+00	
1270	2.525188e-04	4.995005e+00	2.027191e+00	2.500000e+00	
1271	2.525895e-04	4.995005e+00	2.014037e+00	2.500000e+00	
1272	2.527309e-04	4.995005e+00	1.987759e+00	2.500000e+00	

Index   time            v(4)            v(3)            v(1)            
--------------------------------------------------------------------------------
1273	2.527663e-04	4.995005e+00	1.981195e+00	2.500000e+00	
1274	2.528369e-04	4.995005e+00	1.968076e+00	2.500000e+00	
1275	2.529783e-04	4.995005e+00	1.941869e+00	2.500000e+00	
1276	2.530137e-04	4.995005e+00	1.935325e+00	2.500000e+00	
1277	2.530844e-04	4.995005e+00	1.922243e+00	2.500000e+00	
1278	2.532257e-04	4.995005e+00	1.896115e+00	2.500000e+00	
1279	2.532611e-04	4.995005e+00	1.889590e+00	2.500000e+00	
1280	2.533318e-04	4.995005e+00	1.876550e+00	2.500000e+00	
1281	2.534732e-04	4.995005e+00	1.850506e+00	2.500000e+00	
1282	2.535085e-04	4.995005e+00	1.844004e+00	2.500000e+00	
1283	2.535792e-04	4.995005e+00	1.831007e+00	2.500000e+00	
1284	2.537206e-04	4.995005e+00	1.805055e+00	2.500000e+00	
1285	2.537559e-04	4.995005e+00	1.798575e+00	2.500000e+00	
1286	2.538266e-04	4.995005e+00	1.785627e+00	2.500000e+00	
1287	2.539680e-04	4.995005e+00	1.759771e+00	2.500000e+00	
1288	2.540034e-04	4.995005e+00	1.753317e+00	2.500000e+00	
1289	2.540741e-04	4.995005e+00	1.740418e+00	2.500000e+00	
1290	2.542154e-04	4.995005e+00	1.714667e+00	2.500000e+00	
1291	2.542508e-04	4.995005e+00	1.708238e+00	2.500000e+00	
1292	2.543215e-04	4.995005e+00	1.695394e+00	2.500000e+00	
1293	2.544629e-04	4.995005e+00	1.669752e+00	2.500000e+00	
1294	2.544982e-04	4.995005e+00	1.663352e+00	2.500000e+00	
1295	2.545689e-04	4.995005e+00	1.650563e+00	2.500000e+00	
1296	2.547103e-04	4.995005e+00	1.625038e+00	2.500000e+00	
1297	2.547456e-04	4.995005e+00	1.618667e+00	2.500000e+00	
1298	2.548163e-04	4.995005e+00	1.605938e+00	2.500000e+00	
1299	2.549577e-04	4.995005e+00	1.580535e+00	2.500000e+00	
1300	2.549930e-04	4.995005e+00	1.574195e+00	2.500000e+00	
1301	2.550637e-04	4.995005e+00	1.561530e+00	2.500000e+00	
1302	2.552051e-04	4.995005e+00	1.536254e+00	2.500000e+00	
1303	2.552405e-04	4.995005e+00	1.529947e+00	2.500000e+00	
1304	2.553112e-04	4.995005e+00	1.517348e+00	2.500000e+00	
1305	2.554525e-04	4.995005e+00	1.492207e+00	2.500000e+00	
1306	2.554879e-04	4.995005e+00	1.485934e+00	2.500000e+00	
1307	2.555586e-04	4.995005e+00	1.473403e+00	2.500000e+00	
1308	2.557000e-04	4.995005e+00	1.448403e+00	2.500000e+00	
1309	2.557353e-04	4.995005e+00	1.442165e+00	2.500000e+00	
1310	2.558060e-04	4.995005e+00	1.429707e+00	2.500000e+00	
[...]
2364	4.523989e-04	4.995005e+00	2.049524e+00	2.500000e+00	
2365	4.524517e-04	4.995005e+00	2.039684e+00	2.500000e+00	
2366	4.525574e-04	4.995005e+00	2.020018e+00	2.500000e+00	
2367	4.527686e-04	4.995005e+00	1.980752e+00	2.500000e+00	
2368	4.528215e-04	4.995005e+00	1.970950e+00	2.500000e+00	
2369	4.529271e-04	4.995005e+00	1.951362e+00	2.500000e+00	
2370	4.531384e-04	4.995005e+00	1.912261e+00	2.500000e+00	
2371	4.531912e-04	4.995005e+00	1.902501e+00	2.500000e+00	
2372	4.532968e-04	4.995005e+00	1.883002e+00	2.500000e+00	
2373	4.535081e-04	4.995005e+00	1.844086e+00	2.500000e+00	
2374	4.535609e-04	4.995005e+00	1.834375e+00	2.500000e+00	

Index   time            v(4)            v(3)            v(1)            
--------------------------------------------------------------------------------
2375	4.536665e-04	4.995005e+00	1.814975e+00	2.500000e+00	
2376	4.538778e-04	4.995005e+00	1.776266e+00	2.500000e+00	
2377	4.539306e-04	4.995005e+00	1.766608e+00	2.500000e+00	
2378	4.540362e-04	4.995005e+00	1.747317e+00	2.500000e+00	
2379	4.542475e-04	4.995005e+00	1.708836e+00	2.500000e+00	
2380	4.543003e-04	4.995005e+00	1.699237e+00	2.500000e+00	
2381	4.544059e-04	4.995005e+00	1.680066e+00	2.500000e+00	
2382	4.546172e-04	4.995005e+00	1.641832e+00	2.500000e+00	
2383	4.546700e-04	4.995005e+00	1.632298e+00	2.500000e+00	
2384	4.547757e-04	4.995005e+00	1.613257e+00	2.500000e+00	
2385	4.549869e-04	4.995005e+00	1.575292e+00	2.500000e+00	
2386	4.550397e-04	4.995005e+00	1.565827e+00	2.500000e+00	
2387	4.551454e-04	4.995005e+00	1.546926e+00	2.500000e+00	
2388	4.553566e-04	4.995005e+00	1.509251e+00	2.500000e+00	
2389	4.554095e-04	4.995005e+00	1.499860e+00	2.500000e+00	
2390	4.555151e-04	4.995005e+00	1.481110e+00	2.500000e+00	
2391	4.557264e-04	4.995005e+00	1.443745e+00	2.500000e+00	
2392	4.557792e-04	4.995005e+00	1.434433e+00	2.500000e+00	
2393	4.558848e-04	4.995005e+00	1.415843e+00	2.500000e+00	
2394	4.560961e-04	4.995005e+00	1.378808e+00	2.500000e+00	
2395	4.561489e-04	4.995005e+00	1.369580e+00	2.500000e+00	
2396	4.562545e-04	4.995005e+00	1.351162e+00	2.500000e+00	
2397	4.564658e-04	4.995005e+00	1.314477e+00	2.500000e+00	
2398	4.565186e-04	4.995005e+00	1.305338e+00	2.500000e+00	
2399	4.566242e-04	4.995005e+00	1.287100e+00	2.500000e+00	
2400	4.568355e-04	4.995005e+00	1.250785e+00	2.500000e+00	
2401	4.568883e-04	4.995005e+00	1.241741e+00	2.500000e+00	
2402	4.569940e-04	4.995005e+00	1.223693e+00	2.500000e+00	
2403	4.572052e-04	4.995005e+00	1.187768e+00	2.500000e+00	
2404	4.572580e-04	4.995005e+00	1.178822e+00	2.500000e+00	
2405	4.573637e-04	4.995005e+00	1.160975e+00	2.500000e+00	
2406	4.575749e-04	4.995005e+00	1.125458e+00	2.500000e+00	
2407	4.576278e-04	4.995005e+00	1.116616e+00	2.500000e+00	
2408	4.577334e-04	4.995005e+00	1.098979e+00	2.500000e+00	
2409	4.579447e-04	4.995005e+00	1.063890e+00	2.500000e+00	
2410	4.579975e-04	4.995005e+00	1.055157e+00	2.500000e+00	
2411	4.581031e-04	4.995005e+00	1.037739e+00	2.500000e+00	
2412	4.583144e-04	4.995005e+00	1.003097e+00	2.500000e+00	
2413	4.583672e-04	4.995005e+00	9.944776e-01	2.500000e+00	
2414	4.584728e-04	4.995005e+00	9.772884e-01	2.500000e+00	
2415	4.586841e-04	4.995005e+00	9.431119e-01	2.500000e+00	
2416	4.587369e-04	4.995005e+00	9.346104e-01	2.500000e+00	
2417	4.588425e-04	4.995005e+00	9.176593e-01	2.500000e+00	
2418	4.590538e-04	4.995005e+00	8.839668e-01	2.500000e+00	
2419	4.591066e-04	4.995005e+00	8.755879e-01	2.500000e+00	
2420	4.592122e-04	4.995005e+00	8.588840e-01	2.500000e+00	
2421	4.594235e-04	4.995005e+00	8.256937e-01	2.500000e+00	
2422	4.594763e-04	4.995005e+00	8.174420e-01	2.500000e+00	
2423	4.595820e-04	4.995005e+00	8.009943e-01	2.500000e+00	
2424	4.597932e-04	4.995005e+00	7.683240e-01	2.500000e+00	
2425	4.598460e-04	4.995005e+00	7.602039e-01	2.500000e+00	
2426	4.599517e-04	4.995005e+00	7.440213e-01	2.500000e+00	
2427	4.601629e-04	4.995005e+00	7.118888e-01	2.500000e+00	
2428	4.602158e-04	4.995005e+00	7.039047e-01	2.500000e+00	
2429	4.603214e-04	4.995005e+00	6.879959e-01	2.500000e+00	
2430	4.605327e-04	4.995005e+00	6.564185e-01	2.500000e+00	
2431	4.605855e-04	4.995005e+00	6.485747e-01	2.500000e+00	
2432	4.606911e-04	4.995005e+00	6.329483e-01	2.500000e+00	

Index   time            v(4)            v(3)            v(1)            
--------------------------------------------------------------------------------
2433	4.609024e-04	4.995005e+00	6.019429e-01	2.500000e+00	
2434	4.609552e-04	4.995005e+00	5.942436e-01	2.500000e+00	
2435	4.610608e-04	4.995005e+00	5.789081e-01	2.500000e+00	
2436	4.612721e-04	4.995005e+00	5.484916e-01	2.500000e+00	
2437	4.613249e-04	4.995005e+00	5.409410e-01	2.500000e+00	
2438	4.614305e-04	4.995005e+00	5.259046e-01	2.500000e+00	
2439	4.616418e-04	4.995005e+00	4.960933e-01	2.500000e+00	
2440	4.616946e-04	4.995005e+00	4.886954e-01	2.500000e+00	
2441	4.618003e-04	4.995005e+00	4.739662e-01	2.500000e+00	
2442	4.620115e-04	4.995005e+00	4.447763e-01	2.500000e+00	
2443	4.620643e-04	4.995005e+00	4.375352e-01	2.500000e+00	
2444	4.621700e-04	4.995005e+00	4.231212e-01	2.500000e+00	
2445	4.623812e-04	4.995005e+00	3.945683e-01	2.500000e+00	
2446	4.624341e-04	4.995005e+00	3.874879e-01	2.500000e+00	
2447	4.625397e-04	4.995005e+00	3.733968e-01	2.500000e+00	
2448	4.627510e-04	4.995005e+00	3.454964e-01	2.500000e+00	
2449	4.628038e-04	4.995005e+00	3.385804e-01	2.500000e+00	
2450	4.629094e-04	4.995005e+00	3.248200e-01	2.500000e+00	
2451	4.631207e-04	4.995005e+00	2.975871e-01	2.500000e+00	
2452	4.631735e-04	4.995005e+00	2.908393e-01	2.500000e+00	
2453	4.632791e-04	4.995005e+00	2.774169e-01	2.500000e+00	
2454	4.634904e-04	4.995005e+00	2.508662e-01	2.500000e+00	
2455	4.635432e-04	4.995005e+00	2.442903e-01	2.500000e+00	
2456	4.636488e-04	4.995005e+00	2.312131e-01	2.500000e+00	
2457	4.638601e-04	4.995005e+00	2.053590e-01	2.500000e+00	
2458	4.639129e-04	4.995005e+00	1.989585e-01	2.500000e+00	
2459	4.640185e-04	4.995005e+00	1.862335e-01	2.500000e+00	
2460	4.642298e-04	4.995005e+00	1.610900e-01	2.500000e+00	
2461	4.642826e-04	4.995005e+00	1.548683e-01	2.500000e+00	
2462	4.643883e-04	4.995005e+00	1.425025e-01	2.500000e+00	
2463	4.645995e-04	4.995005e+00	1.180830e-01	2.500000e+00	
2464	4.646523e-04	4.995005e+00	1.120436e-01	2.500000e+00	
2465	4.647580e-04	4.995005e+00	1.000436e-01	2.500000e+00	
2466	4.649692e-04	4.995005e+00	7.636135e-02	2.500000e+00	
2467	4.650221e-04	4.995005e+00	7.050736e-02	2.500000e+00	
2468	4.651277e-04	4.995005e+00	5.887970e-02	2.500000e+00	
2469	4.653390e-04	4.995005e+00	3.594750e-02	2.500000e+00	
2470	4.653918e-04	4.995005e+00	3.028213e-02	2.500000e+00	
2471	4.654974e-04	4.995005e+00	1.903305e-02	2.500000e+00	
2472	4.657087e-04	4.995005e+00	-3.13675e-03	2.500000e+00	
2473	4.657615e-04	4.995005e+00	-8.61043e-03	2.500000e+00	
2474	4.658671e-04	4.995005e+00	-1.94749e-02	2.500000e+00	
2475	4.660784e-04	4.995005e+00	-4.08703e-02	2.500000e+00	
2476	4.661312e-04	4.995005e+00	-4.61493e-02	2.500000e+00	
2477	4.662368e-04	4.995005e+00	-5.66233e-02	2.500000e+00	
2478	4.664481e-04	4.995005e+00	-7.72328e-02	2.500000e+00	
2479	4.668706e-04	4.995005e+00	-1.17086e-01	2.500000e+00	
2480	4.669331e-04	4.995005e+00	-1.22825e-01	2.500000e+00	
2481	4.670581e-04	4.995005e+00	-1.34182e-01	2.500000e+00	
2482	4.673081e-04	4.995005e+00	-1.56407e-01	2.500000e+00	
2483	4.673706e-04	4.995005e+00	-1.61861e-01	2.500000e+00	
2484	4.674956e-04	4.995005e+00	-1.72646e-01	2.500000e+00	
2485	4.677456e-04	4.995005e+00	-1.93721e-01	2.500000e+00	
2486	4.682456e-04	4.995005e+00	-2.33871e-01	2.500000e+00	
2487	4.687456e-04	4.995005e+00	-2.71324e-01	2.500000e+00	
2488	4.692456e-04	4.995005e+00	-3.06041e-01	2.500000e+00	
2489	4.697456e-04	4.995005e+00	-3.37989e-01	2.500000e+00	
2490	4.702456e-04	4.995005e+00	-3.67137e-01	2.500000e+00	

Index   time            v(4)            v(3)            v(1)            
--------------------------------------------------------------------------------
2491	4.707456e-04	4.995005e+00	-3.93455e-01	2.500000e+00	
2492	4.712456e-04	4.995005e+00	-4.16918e-01	2.500000e+00	
2493	4.717456e-04	4.995005e+00	-4.37501e-01	2.500000e+00	
2494	4.722456e-04	4.995005e+00	-4.55186e-01	2.500000e+00	
2495	4.727456e-04	4.995005e+00	-4.69955e-01	2.500000e+00	
2496	4.732456e-04	4.995005e+00	-4.81792e-01	2.500000e+00	
2497	4.737456e-04	4.995005e+00	-4.90687e-01	2.500000e+00	
2498	4.742456e-04	4.995005e+00	-4.96631e-01	2.500000e+00	
2499	4.747456e-04	4.995005e+00	-4.99617e-01	2.500000e+00	
2500	4.752456e-04	4.995005e+00	-4.99643e-01	2.500000e+00	
2501	4.757456e-04	4.995005e+00	-4.96708e-01	2.500000e+00	
2502	4.762456e-04	4.995005e+00	-4.90816e-01	2.500000e+00	
2503	4.767456e-04	4.995005e+00	-4.81973e-01	2.500000e+00	
2504	4.772456e-04	4.995005e+00	-4.70187e-01	2.500000e+00	
2505	4.777456e-04	4.995005e+00	-4.55469e-01	2.500000e+00	
2506	4.782456e-04	4.995005e+00	-4.37835e-01	2.500000e+00	
2507	4.787456e-04	4.995005e+00	-4.17302e-01	2.500000e+00	
2508	4.792456e-04	4.995005e+00	-3.93889e-01	2.500000e+00	
2509	4.797456e-04	4.995005e+00	-3.67621e-01	2.500000e+00	
2510	4.802456e-04	4.995005e+00	-3.38522e-01	2.500000e+00	
2511	4.807456e-04	4.995005e+00	-3.06623e-01	2.500000e+00	
2512	4.812456e-04	4.995005e+00	-2.71953e-01	2.500000e+00	
2513	4.817456e-04	4.995005e+00	-2.34548e-01	2.500000e+00	
2514	4.822456e-04	4.995005e+00	-1.94445e-01	2.500000e+00	
2515	4.823081e-04	4.995005e+00	-1.89244e-01	2.500000e+00	
2516	4.824331e-04	4.995005e+00	-1.78718e-01	2.500000e+00	
2517	4.826831e-04	4.995005e+00	-1.57171e-01	2.500000e+00	
2518	4.827456e-04	4.995005e+00	-1.51682e-01	2.500000e+00	
2519	4.828706e-04	4.995005e+00	-1.40580e-01	2.500000e+00	
2520	4.831206e-04	4.995005e+00	-1.17890e-01	2.500000e+00	
2521	4.831831e-04	4.995005e+00	-1.12116e-01	2.500000e+00	
2522	4.833081e-04	4.995005e+00	-1.00448e-01	2.500000e+00	
2523	4.835581e-04	4.995005e+00	-7.66307e-02	2.500000e+00	
2524	4.836206e-04	4.995005e+00	-7.05768e-02	2.500000e+00	
2525	4.837456e-04	4.995005e+00	-5.83503e-02	2.500000e+00	
2526	4.839956e-04	4.995005e+00	-3.34245e-02	2.500000e+00	
2527	4.840581e-04	4.995005e+00	-2.70952e-02	2.500000e+00	
2528	4.841831e-04	4.995005e+00	-1.43197e-02	2.500000e+00	
2529	4.844331e-04	4.995005e+00	1.169584e-02	2.500000e+00	
2530	4.844956e-04	4.995005e+00	1.829591e-02	2.500000e+00	
2531	4.846206e-04	4.995005e+00	3.161074e-02	2.500000e+00	
2532	4.848706e-04	4.995005e+00	5.869638e-02	2.500000e+00	
2533	4.849331e-04	4.995005e+00	6.556217e-02	2.500000e+00	
2534	4.850581e-04	4.995005e+00	7.940627e-02	2.500000e+00	
2535	4.853081e-04	4.995005e+00	1.075415e-01	2.500000e+00	
2536	4.853706e-04	4.995005e+00	1.146679e-01	2.500000e+00	
2537	4.854956e-04	4.995005e+00	1.290308e-01	2.500000e+00	
2538	4.857456e-04	4.995005e+00	1.581944e-01	2.500000e+00	
2539	4.858081e-04	4.995005e+00	1.655759e-01	2.500000e+00	
2540	4.859331e-04	4.995005e+00	1.804468e-01	2.500000e+00	
2541	4.861831e-04	4.995005e+00	2.106168e-01	2.500000e+00	
2542	4.862456e-04	4.995005e+00	2.182478e-01	2.500000e+00	
2543	4.863706e-04	4.995005e+00	2.336154e-01	2.500000e+00	
2544	4.866206e-04	4.995005e+00	2.647690e-01	2.500000e+00	
2545	4.866831e-04	4.995005e+00	2.726438e-01	2.500000e+00	
2546	4.868081e-04	4.995005e+00	2.884965e-01	2.500000e+00	
2547	4.870581e-04	4.995005e+00	3.206101e-01	2.500000e+00	
2548	4.871206e-04	4.995005e+00	3.287228e-01	2.500000e+00	

Index   time            v(4)            v(3)            v(1)            
--------------------------------------------------------------------------------
2549	4.872456e-04	4.995005e+00	3.450486e-01	2.500000e+00	
2550	4.874956e-04	4.995005e+00	3.780980e-01	2.500000e+00	
2551	4.875581e-04	4.995005e+00	3.864424e-01	2.500000e+00	
2552	4.876831e-04	4.995005e+00	4.032290e-01	2.500000e+00	
2553	4.879331e-04	4.995005e+00	4.371891e-01	2.500000e+00	
2554	4.879956e-04	4.995005e+00	4.457590e-01	2.500000e+00	
2555	4.881206e-04	4.995005e+00	4.629937e-01	2.500000e+00	
2556	4.883706e-04	4.995005e+00	4.978389e-01	2.500000e+00	
2557	4.884331e-04	4.995005e+00	5.066277e-01	2.500000e+00	
2558	4.885581e-04	4.995005e+00	5.242975e-01	2.500000e+00	
2559	4.888081e-04	4.995005e+00	5.600015e-01	2.500000e+00	
2560	4.888706e-04	4.995005e+00	5.690027e-01	2.500000e+00	
2561	4.889956e-04	4.995005e+00	5.870941e-01	2.500000e+00	
2562	4.892456e-04	4.995005e+00	6.236300e-01	2.500000e+00	
2563	4.893081e-04	4.995005e+00	6.328366e-01	2.500000e+00	
2564	4.894331e-04	4.995005e+00	6.513362e-01	2.500000e+00	
2565	4.896831e-04	4.995005e+00	6.886762e-01	2.500000e+00	
2566	4.897456e-04	4.995005e+00	6.980814e-01	2.500000e+00	
2567	4.898706e-04	4.995005e+00	7.169751e-01	2.500000e+00	
2568	4.901206e-04	4.995005e+00	7.550911e-01	2.500000e+00	
2569	4.901831e-04	4.995005e+00	7.646878e-01	2.500000e+00	
2570	4.903081e-04	4.995005e+00	7.839612e-01	2.500000e+00	
2571	4.905581e-04	4.995005e+00	8.228244e-01	2.500000e+00	
2572	4.906206e-04	4.995005e+00	8.326053e-01	2.500000e+00	
2573	4.907456e-04	4.995005e+00	8.522439e-01	2.500000e+00	
2574	4.909956e-04	4.995005e+00	8.918250e-01	2.500000e+00	
2575	4.910581e-04	4.995005e+00	9.017826e-01	2.500000e+00	
2576	4.911831e-04	4.995005e+00	9.217717e-01	2.500000e+00	
2577	4.914331e-04	4.995005e+00	9.620407e-01	2.500000e+00	
2578	4.914956e-04	4.995005e+00	9.721676e-01	2.500000e+00	
2579	4.916206e-04	4.995005e+00	9.924920e-01	2.500000e+00	
2580	4.918706e-04	4.995005e+00	1.033418e+00	2.500000e+00	
2581	4.919331e-04	4.995005e+00	1.043707e+00	2.500000e+00	
2582	4.920581e-04	4.995005e+00	1.064351e+00	2.500000e+00	
2583	4.923081e-04	4.995005e+00	1.105904e+00	2.500000e+00	
2584	4.923706e-04	4.995005e+00	1.116347e+00	2.500000e+00	
2585	4.924956e-04	4.995005e+00	1.137295e+00	2.500000e+00	
2586	4.925269e-04	4.995005e+00	1.142546e+00	2.500000e+00	
2587	4.925894e-04	4.995005e+00	1.153062e+00	2.500000e+00	
2588	4.927144e-04	4.995005e+00	1.174157e+00	2.500000e+00	
2589	4.927456e-04	4.995005e+00	1.179444e+00	2.500000e+00	
2590	4.928081e-04	4.995005e+00	1.190032e+00	2.500000e+00	
2591	4.929331e-04	4.995005e+00	1.211269e+00	2.500000e+00	
2592	4.929644e-04	4.995005e+00	1.216591e+00	2.500000e+00	
2593	4.930269e-04	4.995005e+00	1.227249e+00	2.500000e+00	
2594	4.931519e-04	4.995005e+00	1.248625e+00	2.500000e+00	
2595	4.931831e-04	4.995005e+00	1.253981e+00	2.500000e+00	
2596	4.932456e-04	4.995005e+00	1.264707e+00	2.500000e+00	
2597	4.933706e-04	4.995005e+00	1.286217e+00	2.500000e+00	
2598	4.934019e-04	4.995005e+00	1.291606e+00	2.500000e+00	
2599	4.934644e-04	4.995005e+00	1.302398e+00	2.500000e+00	
2600	4.935894e-04	4.995005e+00	1.324038e+00	2.500000e+00	
2601	4.936206e-04	4.995005e+00	1.329459e+00	2.500000e+00	
2602	4.936831e-04	4.995005e+00	1.340316e+00	2.500000e+00	
2603	4.938081e-04	4.995005e+00	1.362081e+00	2.500000e+00	
2604	4.938394e-04	4.995005e+00	1.367534e+00	2.500000e+00	
2605	4.939019e-04	4.995005e+00	1.378452e+00	2.500000e+00	
2606	4.940269e-04	4.995005e+00	1.400340e+00	2.500000e+00	

Index   time            v(4)            v(3)            v(1)            
--------------------------------------------------------------------------------
2607	4.940581e-04	4.995005e+00	1.405822e+00	2.500000e+00	
2608	4.941206e-04	4.995005e+00	1.416800e+00	2.500000e+00	
2609	4.942456e-04	4.995005e+00	1.438806e+00	2.500000e+00	
2610	4.942769e-04	4.995005e+00	1.444318e+00	2.500000e+00	
2611	4.943394e-04	4.995005e+00	1.455353e+00	2.500000e+00	
2612	4.944644e-04	4.995005e+00	1.477472e+00	2.500000e+00	
2613	4.944956e-04	4.995005e+00	1.483012e+00	2.500000e+00	
2614	4.945581e-04	4.995005e+00	1.494103e+00	2.500000e+00	
2615	4.946831e-04	4.995005e+00	1.516332e+00	2.500000e+00	
2616	4.947144e-04	4.995005e+00	1.521899e+00	2.500000e+00	
2617	4.947769e-04	4.995005e+00	1.533044e+00	2.500000e+00	
2618	4.949019e-04	4.995005e+00	1.555378e+00	2.500000e+00	
2619	4.949331e-04	4.995005e+00	1.560970e+00	2.500000e+00	
2620	4.949956e-04	4.995005e+00	1.572167e+00	2.500000e+00	
2621	4.951206e-04	4.995005e+00	1.594602e+00	2.500000e+00	
2622	4.951519e-04	4.995005e+00	1.600219e+00	2.500000e+00	
2623	4.952144e-04	4.995005e+00	1.611465e+00	2.500000e+00	
2624	4.953394e-04	4.995005e+00	1.633997e+00	2.500000e+00	
2625	4.953706e-04	4.995005e+00	1.639638e+00	2.500000e+00	
2626	4.954331e-04	4.995005e+00	1.650931e+00	2.500000e+00	
2627	4.955581e-04	4.995005e+00	1.673555e+00	2.500000e+00	
2628	4.955894e-04	4.995005e+00	1.679219e+00	2.500000e+00	
2629	4.956519e-04	4.995005e+00	1.690557e+00	2.500000e+00	
2630	4.957769e-04	4.995005e+00	1.713270e+00	2.500000e+00	
2631	4.958081e-04	4.995005e+00	1.718956e+00	2.500000e+00	
2632	4.958706e-04	4.995005e+00	1.730337e+00	2.500000e+00	
2633	4.959956e-04	4.995005e+00	1.753133e+00	2.500000e+00	
2634	4.960269e-04	4.995005e+00	1.758840e+00	2.500000e+00	
2635	4.960894e-04	4.995005e+00	1.770261e+00	2.500000e+00	
2636	4.962144e-04	4.995005e+00	1.793138e+00	2.500000e+00	
2637	4.962456e-04	4.995005e+00	1.798864e+00	2.500000e+00	
2638	4.963081e-04	4.995005e+00	1.810324e+00	2.500000e+00	
2639	4.964331e-04	4.995005e+00	1.833276e+00	2.500000e+00	
2640	4.964644e-04	4.995005e+00	1.839020e+00	2.500000e+00	
2641	4.965269e-04	4.995005e+00	1.850517e+00	2.500000e+00	
2642	4.966519e-04	4.995005e+00	1.873540e+00	2.500000e+00	
2643	4.966831e-04	4.995005e+00	1.879302e+00	2.500000e+00	
2644	4.967456e-04	4.995005e+00	1.890832e+00	2.500000e+00	
2645	4.968706e-04	4.995005e+00	1.913922e+00	2.500000e+00	
2646	4.969019e-04	4.995005e+00	1.919700e+00	2.500000e+00	
2647	4.969644e-04	4.995005e+00	1.931263e+00	2.500000e+00	
2648	4.970894e-04	4.995005e+00	1.954415e+00	2.500000e+00	
2649	4.971206e-04	4.995005e+00	1.960208e+00	2.500000e+00	
2650	4.971831e-04	4.995005e+00	1.971801e+00	2.500000e+00	
2651	4.973081e-04	4.995005e+00	1.995011e+00	2.500000e+00	
2652	4.973394e-04	4.995005e+00	2.000819e+00	2.500000e+00	
2653	4.974019e-04	4.995005e+00	2.012439e+00	2.500000e+00	
2654	4.975269e-04	4.995005e+00	2.035703e+00	2.500000e+00	
2655	4.975581e-04	4.995005e+00	2.041523e+00	2.500000e+00	
2656	4.976206e-04	4.995005e+00	2.053169e+00	2.500000e+00	
2657	4.977456e-04	4.995005e+00	2.076482e+00	2.500000e+00	
2658	4.977769e-04	4.995005e+00	2.082314e+00	2.500000e+00	
2659	4.978394e-04	4.995005e+00	2.093983e+00	2.500000e+00	
2660	4.979644e-04	4.995005e+00	2.117341e+00	2.500000e+00	
2661	4.979956e-04	4.995005e+00	2.123184e+00	2.500000e+00	
2662	4.980581e-04	4.995005e+00	2.134875e+00	2.500000e+00	
2663	4.981831e-04	4.995005e+00	2.158272e+00	2.500000e+00	
2664	4.982144e-04	4.995005e+00	2.164125e+00	2.500000e+00	

Index   time            v(4)            v(3)            v(1)            
--------------------------------------------------------------------------------
2665	4.982769e-04	4.995005e+00	2.175835e+00	2.500000e+00	
2666	4.984019e-04	4.995005e+00	2.199268e+00	2.500000e+00	
2667	4.984331e-04	4.995005e+00	2.205130e+00	2.500000e+00	
2668	4.984956e-04	4.995005e+00	2.216856e+00	2.500000e+00	
2669	4.986206e-04	4.995005e+00	2.240321e+00	2.500000e+00	
2670	4.986519e-04	4.995005e+00	2.246190e+00	2.500000e+00	
2671	4.987144e-04	4.995005e+00	2.257931e+00	2.500000e+00	
2672	4.988394e-04	4.995005e+00	2.281423e+00	2.500000e+00	
2673	4.988706e-04	4.995005e+00	2.287298e+00	2.500000e+00	
2674	4.989331e-04	4.995005e+00	2.299051e+00	2.500000e+00	
2675	4.990581e-04	4.995005e+00	2.322566e+00	2.500000e+00	
2676	4.990894e-04	4.995005e+00	2.328447e+00	2.500000e+00	
2677	4.991519e-04	4.995005e+00	2.340210e+00	2.500000e+00	
2678	4.992769e-04	4.995005e+00	2.363743e+00	2.500000e+00	
2679	4.993081e-04	4.995005e+00	2.369628e+00	2.500000e+00	
2680	4.993706e-04	4.995005e+00	2.381398e+00	2.500000e+00	
2681	4.994956e-04	4.995005e+00	2.404945e+00	2.500000e+00	
2682	4.997456e-04	4.995005e+00	2.452055e+00	2.500000e+00	
2683	4.998448e-04	4.995005e+00	2.470751e+00	2.500000e+00	
2684	4.999440e-04	4.995005e+00	2.489447e+00	2.500000e+00	
2685	5.000000e-04	4.995005e+00	2.500000e+00	2.500000e+00	


Total analysis time (seconds) = 0.773138

Total elapsed time (seconds) = 0.797 

Total DRAM available = 3866.230 MB.
DRAM currently available =  426.648 MB.
Maximum ngspice program size =   21.895 MB.
Current ngspice program size =   12.586 MB.

Shared ngspice pages =   10.492 MB.
Text (code) pages =    6.543 MB.
Stack = 0 bytes.
Library pages =    2.223 MB.

